
     RDKit          3D

175182  0  0  0  0  0  0  0  0999 V2000
   -0.6233   -3.9683    4.3763 C   0  0  2  0  0  0  0  0  0  1  0  0
   -0.5942   -5.0339    4.6242 H   0  0  0  0  0  0  0  0  0  2  0  0
   -1.9047   -3.3263    4.9049 C   0  0  1  0  0  0  0  0  0  3  0  0
   -1.9667   -3.5313    5.9834 H   0  0  0  0  0  0  0  0  0  4  0  0
   -1.8520   -1.8226    4.6922 C   0  0  2  0  0  0  0  0  0  5  0  0
   -1.7881   -1.6296    3.6150 H   0  0  0  0  0  0  0  0  0  6  0  0
   -0.5896   -1.2417    5.3230 C   0  0  1  0  0  0  0  0  0  7  0  0
   -0.6296   -1.3154    6.4147 H   0  0  0  0  0  0  0  0  0  8  0  0
    0.6527   -1.9776    4.7982 C   0  0  1  0  0  0  0  0  0  9  0  0
    0.7487   -1.7825    3.7219 H   0  0  0  0  0  0  0  0  0 10  0  0
    1.9351   -1.5414    5.4796 C   0  0  2  0  0  0  0  0  0 11  0  0
    2.1546   -0.5133    5.1543 H   0  0  0  0  0  0  0  0  0 12  0  0
    2.7460   -2.1958    5.1261 H   0  0  0  0  0  0  0  0  0 13  0  0
   -3.0202   -3.8959    4.2279 O   0  0  0  0  0  0  0  0  0 14  0  0
   -3.0478   -1.2934    5.2370 O   0  0  0  0  0  0  0  0  0 15  0  0
   -0.4928    0.1250    4.9080 O   0  0  0  0  0  0  0  0  0 16  0  0
    0.5053   -3.3965    5.0277 O   0  0  0  0  0  0  0  0  0 17  0  0
    1.7601   -1.6182    6.8864 O   0  0  0  0  0  0  0  0  0 18  0  0
   -0.7166    1.1612    5.8242 C   0  0  2  0  0  0  0  0  0 19  0  0
   -1.0517    0.7790    6.7933 H   0  0  0  0  0  0  0  0  0 20  0  0
   -1.7358    2.1315    5.2118 C   0  0  1  0  0  0  0  0  0 21  0  0
   -1.8541    2.9736    5.9102 H   0  0  0  0  0  0  0  0  0 22  0  0
   -1.1913    2.6400    3.8772 C   0  0  2  0  0  0  0  0  0 23  0  0
   -1.0586    1.7805    3.2152 H   0  0  0  0  0  0  0  0  0 24  0  0
    0.1607    3.3011    4.1010 C   0  0  1  0  0  0  0  0  0 25  0  0
    0.0338    4.2192    4.6816 H   0  0  0  0  0  0  0  0  0 26  0  0
    1.1005    2.3601    4.8762 C   0  0  1  0  0  0  0  0  0 27  0  0
    1.3257    1.5062    4.2293 H   0  0  0  0  0  0  0  0  0 28  0  0
    2.4108    3.0346    5.2459 C   0  0  2  0  0  0  0  0  0 29  0  0
    2.1460    4.3339    5.7769 O   0  0  0  0  0  0  0  0  0 30  0  0
   -2.9880    1.4855    5.0163 O   0  0  0  0  0  0  0  0  0 31  0  0
   -2.1560    3.4857    3.2529 O   0  0  0  0  0  0  0  0  0 32  0  0
    0.7415    3.5806    2.8233 O   0  0  0  0  0  0  0  0  0 33  0  0
    0.4767    1.8892    6.0769 O   0  0  0  0  0  0  0  0  0 34  0  0
    1.2431    4.8829    2.5883 C   0  0  2  0  0  0  0  0  0 35  0  0
    1.7760    5.2531    3.4733 H   0  0  0  0  0  0  0  0  0 36  0  0
    0.1213    5.8522    2.1620 C   0  0  1  0  0  0  0  0  0 37  0  0
    0.5787    6.8263    1.9451 H   0  0  0  0  0  0  0  0  0 38  0  0
   -0.5528    5.3236    0.9025 C   0  0  2  0  0  0  0  0  0 39  0  0
   -1.0158    4.3563    1.1288 H   0  0  0  0  0  0  0  0  0 40  0  0
    0.4980    5.1429   -0.1893 C   0  0  1  0  0  0  0  0  0 41  0  0
    0.8964    6.1194   -0.4865 H   0  0  0  0  0  0  0  0  0 42  0  0
    1.6576    4.2759    0.3187 C   0  0  1  0  0  0  0  0  0 43  0  0
    1.2784    3.2588    0.4819 H   0  0  0  0  0  0  0  0  0 44  0  0
    2.8082    4.2135   -0.6724 C   0  0  2  0  0  0  0  0  0 45  0  0
    2.4718    3.6344   -1.5438 H   0  0  0  0  0  0  0  0  0 46  0  0
    3.6373    3.6669   -0.1939 H   0  0  0  0  0  0  0  0  0 47  0  0
   -0.9114    6.0112    3.1503 O   0  0  0  0  0  0  0  0  0 48  0  0
   -1.5426    6.2467    0.4288 O   0  0  0  0  0  0  0  0  0 49  0  0
   -0.0672    4.4704   -1.3081 O   0  0  0  0  0  0  0  0  0 50  0  0
    2.1831    4.8013    1.5523 O   0  0  0  0  0  0  0  0  0 51  0  0
    3.1889    5.5299   -1.0300 O   0  0  0  0  0  0  0  0  0 52  0  0
   -0.6311    5.2849   -2.3241 C   0  0  2  0  0  0  0  0  0 53  0  0
   -0.6948    6.3228   -1.9853 H   0  0  0  0  0  0  0  0  0 54  0  0
   -2.0248    4.7372   -2.6619 C   0  0  1  0  0  0  0  0  0 55  0  0
   -2.4650    5.4145   -3.4109 H   0  0  0  0  0  0  0  0  0 56  0  0
   -1.9002    3.3493   -3.2825 C   0  0  2  0  0  0  0  0  0 57  0  0
   -1.5350    2.6666   -2.5063 H   0  0  0  0  0  0  0  0  0 58  0  0
   -0.9102    3.3402   -4.4365 C   0  0  1  0  0  0  0  0  0 59  0  0
   -1.3396    3.8741   -5.2919 H   0  0  0  0  0  0  0  0  0 60  0  0
    0.4145    4.0085   -4.0427 C   0  0  1  0  0  0  0  0  0 61  0  0
    0.9113    3.3703   -3.2988 H   0  0  0  0  0  0  0  0  0 62  0  0
    1.3417    4.2091   -5.2344 C   0  0  2  0  0  0  0  0  0 63  0  0
    1.5710    3.2369   -5.6793 H   0  0  0  0  0  0  0  0  0 64  0  0
    2.2799    4.6584   -4.8745 H   0  0  0  0  0  0  0  0  0 65  0  0
    0.7307    4.9990   -6.2419 O   0  0  0  0  0  0  0  0  0 66  0  0
   -2.8623    4.6155   -1.5277 O   0  0  0  0  0  0  0  0  0 67  0  0
   -3.1568    2.8953   -3.7775 O   0  0  0  0  0  0  0  0  0 68  0  0
   -0.6516    1.9801   -4.7531 O   0  0  0  0  0  0  0  0  0 69  0  0
    0.1924    5.3055   -3.4695 O   0  0  0  0  0  0  0  0  0 70  0  0
   -0.6354    1.5656   -6.1252 C   0  0  2  0  0  0  0  0  0 71  0  0
   -0.7552    2.4324   -6.7821 H   0  0  0  0  0  0  0  0  0 72  0  0
   -1.7740    0.5563   -6.3086 C   0  0  1  0  0  0  0  0  0 73  0  0
   -1.7732    0.2322   -7.3550 H   0  0  0  0  0  0  0  0  0 74  0  0
   -1.5203   -0.6626   -5.4192 C   0  0  2  0  0  0  0  0  0 75  0  0
   -1.5728   -0.3354   -4.3697 H   0  0  0  0  0  0  0  0  0 76  0  0
   -0.1347   -1.2357   -5.6751 C   0  0  1  0  0  0  0  0  0 77  0  0
   -0.1226   -1.7141   -6.6589 H   0  0  0  0  0  0  0  0  0 78  0  0
    0.9362   -0.1352   -5.6035 C   0  0  1  0  0  0  0  0  0 79  0  0
    0.9799    0.2063   -4.5674 H   0  0  0  0  0  0  0  0  0 80  0  0
    2.3215   -0.6311   -5.9718 C   0  0  2  0  0  0  0  0  0 81  0  0
    2.6591   -1.3013   -5.1709 H   0  0  0  0  0  0  0  0  0 82  0  0
    2.9966    0.2358   -6.0021 H   0  0  0  0  0  0  0  0  0 83  0  0
   -3.0514    1.1116   -6.0562 O   0  0  0  0  0  0  0  0  0 84  0  0
   -2.4873   -1.6743   -5.6651 O   0  0  0  0  0  0  0  0  0 85  0  0
    0.1291   -2.1787   -4.6412 O   0  0  0  0  0  0  0  0  0 86  0  0
    0.6050    0.9917   -6.4388 O   0  0  0  0  0  0  0  0  0 87  0  0
    2.2609   -1.3010   -7.2291 O   0  0  0  0  0  0  0  0  0 88  0  0
    0.8062   -3.3924   -4.9892 C   0  0  2  0  0  0  0  0  0 89  0  0
    1.2361   -3.3024   -5.9906 H   0  0  0  0  0  0  0  0  0 90  0  0
   -0.2213   -4.5367   -4.9377 C   0  0  1  0  0  0  0  0  0 91  0  0
    0.2806   -5.4600   -5.2500 H   0  0  0  0  0  0  0  0  0 92  0  0
   -0.6979   -4.7236   -3.4940 C   0  0  2  0  0  0  0  0  0 93  0  0
   -1.2748   -3.8279   -3.2059 H   0  0  0  0  0  0  0  0  0 94  0  0
    0.5161   -4.8171   -2.5662 C   0  0  1  0  0  0  0  0  0 95  0  0
    1.0560   -5.7456   -2.7802 H   0  0  0  0  0  0  0  0  0 96  0  0
    1.4905   -3.6546   -2.7286 C   0  0  1  0  0  0  0  0  0 97  0  0
    0.9746   -2.7236   -2.4632 H   0  0  0  0  0  0  0  0  0 98  0  0
    2.7525   -3.7764   -1.8593 C   0  0  2  0  0  0  0  0  0 99  0  0
    2.5493   -3.2989   -0.8909 H   0  0  0  0  0  0  0  0  0100  0  0
    3.5378   -3.1940   -2.3479 H   0  0  0  0  0  0  0  0  0101  0  0
   -1.2547   -4.3079   -5.8678 O   0  0  0  0  0  0  0  0  0102  0  0
   -1.4800   -5.8944   -3.4044 O   0  0  0  0  0  0  0  0  0103  0  0
    0.0088   -4.8407   -1.2219 O   0  0  0  0  0  0  0  0  0104  0  0
    1.8872   -3.5829   -4.1095 O   0  0  0  0  0  0  0  0  0105  0  0
    3.2142   -5.1040   -1.6756 O   0  0  0  0  0  0  0  0  0106  0  0
    0.3342   -5.9390   -0.4174 C   0  0  2  0  0  0  0  0  0107  0  0
    0.7120   -6.7697   -1.0214 H   0  0  0  0  0  0  0  0  0108  0  0
   -0.9160   -6.3662    0.3551 C   0  0  1  0  0  0  0  0  0109  0  0
   -0.6525   -7.2496    0.9553 H   0  0  0  0  0  0  0  0  0110  0  0
   -1.3349   -5.2524    1.3015 C   0  0  2  0  0  0  0  0  0111  0  0
   -1.6144   -4.3777    0.6956 H   0  0  0  0  0  0  0  0  0112  0  0
   -0.1516   -4.8745    2.1844 C   0  0  1  0  0  0  0  0  0113  0  0
    0.1191   -5.7272    2.8170 H   0  0  0  0  0  0  0  0  0114  0  0
    1.0773   -4.4970    1.3588 C   0  0  1  0  0  0  0  0  0115  0  0
    0.8534   -3.6186    0.7433 H   0  0  0  0  0  0  0  0  0116  0  0
    2.3103   -4.1808    2.2163 C   0  0  2  0  0  0  0  0  0117  0  0
    2.3028   -3.1069    2.4273 H   0  0  0  0  0  0  0  0  0118  0  0
    3.1951   -4.3878    1.6036 H   0  0  0  0  0  0  0  0  0119  0  0
   -1.9427   -6.6845   -0.5731 O   0  0  0  0  0  0  0  0  0120  0  0
   -2.4366   -5.7283    2.0542 O   0  0  0  0  0  0  0  0  0121  0  0
   -0.5618   -3.7681    2.9936 O   0  0  0  0  0  0  0  0  0122  0  0
    1.3831   -5.6212    0.4945 O   0  0  0  0  0  0  0  0  0123  0  0
    2.4156   -4.9510    3.4049 O   0  0  0  0  0  0  0  0  0124  0  0
    3.0333    3.1010    4.3420 H   0  0  0  0  0  0  0  0  0125  0  0
    2.9226    2.3948    5.9767 H   0  0  0  0  0  0  0  0  0126  0  0
   -3.7608   -3.2905    4.3849 H   0  0  0  0  0  0  0  0  0127  0  0
   -3.0774   -0.3347    5.0506 H   0  0  0  0  0  0  0  0  0128  0  0
    2.5990   -1.4010    7.3099 H   0  0  0  0  0  0  0  0  0129  0  0
    2.9583    4.6655    6.1782 H   0  0  0  0  0  0  0  0  0130  0  0
   -3.4661    2.0217    4.3644 H   0  0  0  0  0  0  0  0  0131  0  0
   -1.9229    4.4125    3.4346 H   0  0  0  0  0  0  0  0  0132  0  0
   -0.5842    6.5696    3.8677 H   0  0  0  0  0  0  0  0  0133  0  0
   -2.1052    6.4624    1.1875 H   0  0  0  0  0  0  0  0  0134  0  0
    3.7630    5.4825   -1.8038 H   0  0  0  0  0  0  0  0  0135  0  0
    0.4814    5.8353   -5.8228 H   0  0  0  0  0  0  0  0  0136  0  0
   -2.5858    5.2680   -0.8593 H   0  0  0  0  0  0  0  0  0137  0  0
   -3.7663    2.8732   -3.0261 H   0  0  0  0  0  0  0  0  0138  0  0
   -3.0354    1.5652   -5.1907 H   0  0  0  0  0  0  0  0  0139  0  0
   -3.3469   -1.2297   -5.7065 H   0  0  0  0  0  0  0  0  0140  0  0
    3.1060   -1.7457   -7.3663 H   0  0  0  0  0  0  0  0  0141  0  0
   -1.7536   -3.5163   -5.5996 H   0  0  0  0  0  0  0  0  0142  0  0
   -1.7360   -6.0119   -2.4723 H   0  0  0  0  0  0  0  0  0143  0  0
    2.8035   -5.4253   -0.8563 H   0  0  0  0  0  0  0  0  0144  0  0
   -2.7676   -6.7054   -0.0661 H   0  0  0  0  0  0  0  0  0145  0  0
   -2.7157   -5.0282    2.6741 H   0  0  0  0  0  0  0  0  0146  0  0
    1.9204   -4.4784    4.0939 H   0  0  0  0  0  0  0  0  0147  0  0
   -1.0124    0.1530   -0.1690 N   0  0  0  0  0  0  0  0  0148  0  0
   -0.4460    0.1100    1.1778 C   0  0  2  0  0  0  0  0  0149  0  0
   -1.5792    0.5052    2.1340 C   0  0  0  0  0  0  0  0  0150  0  0
   -2.2327   -0.2705    2.7792 O   0  0  0  0  0  0  0  0  0151  0  0
   -1.9016    1.8371    2.1373 O   0  0  0  0  0  0  0  0  0152  0  0
    0.8345    0.9581    1.3492 C   0  0  2  0  0  0  0  0  0153  0  0
    1.8849    0.6493    0.3087 C   0  0  0  0  0  0  0  0  0154  0  0
    2.1062    1.5337   -0.7540 C   0  0  0  0  0  0  0  0  0155  0  0
    2.6317   -0.5353    0.3756 C   0  0  0  0  0  0  0  0  0156  0  0
    3.0691    1.2536   -1.7258 C   0  0  0  0  0  0  0  0  0157  0  0
    3.5769   -0.8284   -0.6069 C   0  0  0  0  0  0  0  0  0158  0  0
    3.7986    0.0657   -1.6587 C   0  0  0  0  0  0  0  0  0159  0  0
   -1.8107   -0.7851   -2.2611 C   0  0  2  0  0  0  0  0  0160  0  0
   -0.9342   -0.9152   -1.0284 C   0  0  0  0  0  0  0  0  0161  0  0
   -0.2194   -1.8860   -0.8093 O   0  0  0  0  0  0  0  0  0162  0  0
   -1.6904    0.8724   -0.3709 H   0  0  0  0  0  0  0  0  0163  0  0
   -0.2087   -0.9338    1.3762 H   0  0  0  0  0  0  0  0  0164  0  0
   -1.1573    2.3646    1.8082 H   0  0  0  0  0  0  0  0  0165  0  0
    1.2140    0.7719    2.3603 H   0  0  0  0  0  0  0  0  0166  0  0
    0.5996    2.0286    1.3007 H   0  0  0  0  0  0  0  0  0167  0  0
    1.5300    2.4529   -0.8251 H   0  0  0  0  0  0  0  0  0168  0  0
    2.4728   -1.2325    1.1952 H   0  0  0  0  0  0  0  0  0169  0  0
    3.2318    1.9571   -2.5359 H   0  0  0  0  0  0  0  0  0170  0  0
    4.1300   -1.7609   -0.5631 H   0  0  0  0  0  0  0  0  0171  0  0
    4.5283   -0.1711   -2.4283 H   0  0  0  0  0  0  0  0  0172  0  0
   -2.8639   -0.6965   -1.9728 H   0  0  0  0  0  0  0  0  0173  0  0
   -1.6851   -1.6806   -2.8695 H   0  0  0  0  0  0  0  0  0174  0  0
   -1.5406    0.0993   -2.8455 H   0  0  0  0  0  0  0  0  0175  0  0
  1  2  1  6
  1  3  1  0
  1 17  1  0
  1122  1  0
  3  4  1  1
  3  5  1  0
  3 14  1  0
  5  6  1  6
  5  7  1  0
  5 15  1  0
  7  8  1  1
  7  9  1  0
  7 16  1  0
  9 10  1  6
  9 11  1  0
  9 17  1  0
 11 12  1  1
 11 13  1  0
 11 18  1  0
 14127  1  0
 15128  1  0
 16 19  1  0
 18129  1  0
 19 20  1  1
 19 21  1  0
 19 34  1  0
 21 22  1  1
 21 23  1  0
 21 31  1  0
 23 24  1  6
 23 25  1  0
 23 32  1  0
 25 26  1  1
 25 27  1  0
 25 33  1  0
 27 28  1  6
 27 29  1  0
 27 34  1  0
 29 30  1  0
 29125  1  6
 29126  1  0
 30130  1  0
 31131  1  0
 32132  1  0
 33 35  1  0
 35 36  1  1
 35 37  1  0
 35 51  1  0
 37 38  1  6
 37 39  1  0
 37 48  1  0
 39 40  1  1
 39 41  1  0
 39 49  1  0
 41 42  1  6
 41 43  1  0
 41 50  1  0
 43 44  1  1
 43 45  1  0
 43 51  1  0
 45 46  1  6
 45 47  1  0
 45 52  1  0
 48133  1  0
 49134  1  0
 50 53  1  0
 52135  1  0
 53 54  1  1
 53 55  1  0
 53 70  1  0
 55 56  1  6
 55 57  1  0
 55 67  1  0
 57 58  1  1
 57 59  1  0
 57 68  1  0
 59 60  1  6
 59 61  1  0
 59 69  1  0
 61 62  1  1
 61 63  1  0
 61 70  1  0
 63 64  1  6
 63 65  1  0
 63 66  1  0
 66136  1  0
 67137  1  0
 68138  1  0
 69 71  1  0
 71 72  1  6
 71 73  1  0
 71 87  1  0
 73 74  1  6
 73 75  1  0
 73 84  1  0
 75 76  1  1
 75 77  1  0
 75 85  1  0
 77 78  1  6
 77 79  1  0
 77 86  1  0
 79 80  1  1
 79 81  1  0
 79 87  1  0
 81 82  1  1
 81 83  1  0
 81 88  1  0
 84139  1  0
 85140  1  0
 86 89  1  0
 88141  1  0
 89 90  1  6
 89 91  1  0
 89105  1  0
 91 92  1  6
 91 93  1  0
 91102  1  0
 93 94  1  1
 93 95  1  0
 93103  1  0
 95 96  1  6
 95 97  1  0
 95104  1  0
 97 98  1  1
 97 99  1  0
 97105  1  0
 99100  1  1
 99101  1  0
 99106  1  0
102142  1  0
103143  1  0
104107  1  0
106144  1  0
107108  1  6
107109  1  0
107123  1  0
109110  1  1
109111  1  0
109120  1  0
111112  1  6
111113  1  0
111121  1  0
113114  1  1
113115  1  0
113122  1  0
115116  1  6
115117  1  0
115123  1  0
117118  1  1
117119  1  0
117124  1  0
120145  1  0
121146  1  0
124147  1  0
148149  1  0
148161  1  0
148163  1  0
149150  1  0
149153  1  0
149164  1  1
150151  2  0
150152  1  0
152165  1  0
153154  1  0
153166  1  1
153167  1  0
154155  4  0
154156  4  0
155157  4  0
155168  1  0
156158  4  0
156169  1  0
157159  4  0
157170  1  0
158159  4  0
158171  1  0
159172  1  0
160161  1  0
160173  1  1
160174  1  0
160175  1  0
161162  2  0
M  END
