
     RDKit          3D

147154  0  0  0  0  0  0  0  0999 V2000
   -0.5693   -3.9640    4.4110 C   0  0  2  0  0  0  0  0  0  1  0  0
   -0.5376   -5.0297    4.6585 H   0  0  0  0  0  0  0  0  0  2  0  0
   -1.8545   -3.3264    4.9359 C   0  0  1  0  0  0  0  0  0  3  0  0
   -1.9191   -3.5321    6.0141 H   0  0  0  0  0  0  0  0  0  4  0  0
   -1.8059   -1.8224    4.7240 C   0  0  2  0  0  0  0  0  0  5  0  0
   -1.7393   -1.6288    3.6471 H   0  0  0  0  0  0  0  0  0  6  0  0
   -0.5473   -1.2378    5.3590 C   0  0  1  0  0  0  0  0  0  7  0  0
   -0.5906   -1.3121    6.4506 H   0  0  0  0  0  0  0  0  0  8  0  0
    0.6989   -1.9695    4.8377 C   0  0  1  0  0  0  0  0  0  9  0  0
    0.7977   -1.7736    3.7618 H   0  0  0  0  0  0  0  0  0 10  0  0
    1.9778   -1.5294    5.5234 C   0  0  2  0  0  0  0  0  0 11  0  0
    2.1950   -0.5006    5.1992 H   0  0  0  0  0  0  0  0  0 12  0  0
    2.7919   -2.1812    5.1721 H   0  0  0  0  0  0  0  0  0 13  0  0
   -2.9660   -3.8992    4.2551 O   0  0  0  0  0  0  0  0  0 14  0  0
   -3.0051   -1.2973    5.2653 O   0  0  0  0  0  0  0  0  0 15  0  0
   -0.4537    0.1294    4.9449 O   0  0  0  0  0  0  0  0  0 16  0  0
    0.5553   -3.3890    5.0661 O   0  0  0  0  0  0  0  0  0 17  0  0
    1.7986   -1.6075    6.9296 O   0  0  0  0  0  0  0  0  0 18  0  0
   -0.6836    1.1645    5.8609 C   0  0  2  0  0  0  0  0  0 19  0  0
   -1.0205    0.7807    6.8288 H   0  0  0  0  0  0  0  0  0 20  0  0
   -1.7040    2.1318    5.2457 C   0  0  1  0  0  0  0  0  0 21  0  0
   -1.8272    2.9732    5.9442 H   0  0  0  0  0  0  0  0  0 22  0  0
   -1.1570    2.6426    3.9131 C   0  0  2  0  0  0  0  0  0 23  0  0
   -1.0194    1.7838    3.2511 H   0  0  0  0  0  0  0  0  0 24  0  0
    0.1922    3.3079    4.1413 C   0  0  1  0  0  0  0  0  0 25  0  0
    0.0605    4.2254    4.7220 H   0  0  0  0  0  0  0  0  0 26  0  0
    1.1326    2.3696    4.9191 C   0  0  1  0  0  0  0  0  0 27  0  0
    1.3626    1.5167    4.2725 H   0  0  0  0  0  0  0  0  0 28  0  0
    2.4395    3.0481    5.2932 C   0  0  2  0  0  0  0  0  0 29  0  0
    2.1689    4.3463    5.8239 O   0  0  0  0  0  0  0  0  0 30  0  0
   -2.9535    1.4819    5.0460 O   0  0  0  0  0  0  0  0  0 31  0  0
   -2.1224    3.4855    3.2862 O   0  0  0  0  0  0  0  0  0 32  0  0
    0.7762    3.5898    2.8656 O   0  0  0  0  0  0  0  0  0 33  0  0
    0.5066    1.8961    6.1176 O   0  0  0  0  0  0  0  0  0 34  0  0
    1.2743    4.8939    2.6327 C   0  0  2  0  0  0  0  0  0 35  0  0
    1.8032    5.2654    3.5196 H   0  0  0  0  0  0  0  0  0 36  0  0
    0.1507    5.8598    2.2034 C   0  0  1  0  0  0  0  0  0 37  0  0
    0.6057    6.8354    1.9884 H   0  0  0  0  0  0  0  0  0 38  0  0
   -0.5177    5.3296    0.9416 C   0  0  2  0  0  0  0  0  0 39  0  0
   -0.9784    4.3608    1.1660 H   0  0  0  0  0  0  0  0  0 40  0  0
    0.5370    5.1527   -0.1470 C   0  0  1  0  0  0  0  0  0 41  0  0
    0.9333    6.1306   -0.4426 H   0  0  0  0  0  0  0  0  0 42  0  0
    1.6977    4.2892    0.3642 C   0  0  1  0  0  0  0  0  0 43  0  0
    1.3213    3.2709    0.5258 H   0  0  0  0  0  0  0  0  0 44  0  0
    2.8517    4.2310   -0.6233 C   0  0  2  0  0  0  0  0  0 45  0  0
    2.5199    3.6512   -1.4960 H   0  0  0  0  0  0  0  0  0 46  0  0
    3.6810    3.6868   -0.1425 H   0  0  0  0  0  0  0  0  0 47  0  0
   -0.8856    6.0150    3.1886 O   0  0  0  0  0  0  0  0  0 48  0  0
   -1.5091    6.2497    0.4652 O   0  0  0  0  0  0  0  0  0 49  0  0
   -0.0225    4.4790   -1.2679 O   0  0  0  0  0  0  0  0  0 50  0  0
    2.2177    4.8157    1.5997 O   0  0  0  0  0  0  0  0  0 51  0  0
    3.2292    5.5487   -0.9791 O   0  0  0  0  0  0  0  0  0 52  0  0
   -0.5859    5.2921   -2.2852 C   0  0  2  0  0  0  0  0  0 53  0  0
   -0.6539    6.3297   -1.9462 H   0  0  0  0  0  0  0  0  0 54  0  0
   -1.9767    4.7401   -2.6277 C   0  0  1  0  0  0  0  0  0 55  0  0
   -2.4167    5.4164   -3.3777 H   0  0  0  0  0  0  0  0  0 56  0  0
   -1.8457    3.3529   -3.2485 C   0  0  2  0  0  0  0  0  0 57  0  0
   -1.4808    2.6711   -2.4715 H   0  0  0  0  0  0  0  0  0 58  0  0
   -0.8521    3.3475   -4.3994 C   0  0  1  0  0  0  0  0  0 59  0  0
   -1.2806    3.8804   -5.2559 H   0  0  0  0  0  0  0  0  0 60  0  0
    0.4692    4.0199   -4.0012 C   0  0  1  0  0  0  0  0  0 61  0  0
    0.9657    3.3829   -3.2560 H   0  0  0  0  0  0  0  0  0 62  0  0
    1.3994    4.2239   -5.1899 C   0  0  2  0  0  0  0  0  0 63  0  0
    1.6332    3.2527   -5.6346 H   0  0  0  0  0  0  0  0  0 64  0  0
    2.3350    4.6761   -4.8269 H   0  0  0  0  0  0  0  0  0 65  0  0
    0.7890    5.0124   -6.1989 O   0  0  0  0  0  0  0  0  0 66  0  0
   -2.8174    4.6152   -1.4961 O   0  0  0  0  0  0  0  0  0 67  0  0
   -3.0994    2.8951   -3.7476 O   0  0  0  0  0  0  0  0  0 68  0  0
   -0.5882    1.9884   -4.7158 O   0  0  0  0  0  0  0  0  0 69  0  0
    0.2411    5.3159   -3.4281 O   0  0  0  0  0  0  0  0  0 70  0  0
   -0.5664    1.5745   -6.0881 C   0  0  2  0  0  0  0  0  0 71  0  0
   -0.6869    2.4413   -6.7449 H   0  0  0  0  0  0  0  0  0 72  0  0
   -1.7012    0.5618   -6.2755 C   0  0  1  0  0  0  0  0  0 73  0  0
   -1.6961    0.2381   -7.3220 H   0  0  0  0  0  0  0  0  0 74  0  0
   -1.4464   -0.6568   -5.3858 C   0  0  2  0  0  0  0  0  0 75  0  0
   -1.5032   -0.3302   -4.3363 H   0  0  0  0  0  0  0  0  0 76  0  0
   -0.0581   -1.2253   -5.6376 C   0  0  1  0  0  0  0  0  0 77  0  0
   -0.0414   -1.7032   -6.6216 H   0  0  0  0  0  0  0  0  0 78  0  0
    1.0090   -0.1214   -5.5622 C   0  0  1  0  0  0  0  0  0 79  0  0
    1.0484    0.2197   -4.5258 H   0  0  0  0  0  0  0  0  0 80  0  0
    2.3971   -0.6128   -5.9264 C   0  0  2  0  0  0  0  0  0 81  0  0
    2.7342   -1.2822   -5.1248 H   0  0  0  0  0  0  0  0  0 82  0  0
    3.0694    0.2564   -5.9542 H   0  0  0  0  0  0  0  0  0 83  0  0
   -2.9811    1.1128   -6.0268 O   0  0  0  0  0  0  0  0  0 84  0  0
   -2.4094   -1.6715   -5.6352 O   0  0  0  0  0  0  0  0  0 85  0  0
    0.2054   -2.1679   -4.6033 O   0  0  0  0  0  0  0  0  0 86  0  0
    0.6768    1.0048   -6.3980 O   0  0  0  0  0  0  0  0  0 87  0  0
    2.3425   -1.2822   -7.1842 O   0  0  0  0  0  0  0  0  0 88  0  0
    0.8876   -3.3793   -4.9498 C   0  0  2  0  0  0  0  0  0 89  0  0
    1.3203   -3.2875   -5.9498 H   0  0  0  0  0  0  0  0  0 90  0  0
   -0.1364   -4.5269   -4.9020 C   0  0  1  0  0  0  0  0  0 91  0  0
    0.3694   -5.4485   -5.2131 H   0  0  0  0  0  0  0  0  0 92  0  0
   -0.6170   -4.7160   -3.4599 C   0  0  2  0  0  0  0  0  0 93  0  0
   -1.1977   -3.8223   -3.1732 H   0  0  0  0  0  0  0  0  0 94  0  0
    0.5944   -4.8060   -2.5283 C   0  0  1  0  0  0  0  0  0 95  0  0
    1.1380   -5.7327   -2.7411 H   0  0  0  0  0  0  0  0  0 96  0  0
    1.5656   -3.6404   -2.6872 C   0  0  1  0  0  0  0  0  0 97  0  0
    1.0459   -2.7111   -2.4229 H   0  0  0  0  0  0  0  0  0 98  0  0
    2.8252   -3.7585   -1.8140 C   0  0  2  0  0  0  0  0  0 99  0  0
    2.6175   -3.2821   -0.8460 H   0  0  0  0  0  0  0  0  0100  0  0
    3.6102   -3.1733   -2.2998 H   0  0  0  0  0  0  0  0  0101  0  0
   -1.1677   -4.3010   -5.8352 O   0  0  0  0  0  0  0  0  0102  0  0
   -1.3956   -5.8893   -3.3732 O   0  0  0  0  0  0  0  0  0103  0  0
    0.0830   -4.8319   -1.1856 O   0  0  0  0  0  0  0  0  0104  0  0
    1.9664   -3.5667   -4.0668 O   0  0  0  0  0  0  0  0  0105  0  0
    3.2907   -5.0847   -1.6294 O   0  0  0  0  0  0  0  0  0106  0  0
    0.4094   -5.9295   -0.3806 C   0  0  2  0  0  0  0  0  0107  0  0
    0.7918   -6.7587   -0.9838 H   0  0  0  0  0  0  0  0  0108  0  0
   -0.8418   -6.3610    0.3878 C   0  0  1  0  0  0  0  0  0109  0  0
   -0.5774   -7.2439    0.9884 H   0  0  0  0  0  0  0  0  0110  0  0
   -1.2672   -5.2490    1.3334 C   0  0  2  0  0  0  0  0  0111  0  0
   -1.5477   -4.3749    0.7270 H   0  0  0  0  0  0  0  0  0112  0  0
   -0.0879   -4.8677    2.2201 C   0  0  1  0  0  0  0  0  0113  0  0
    0.1835   -5.7198    2.8532 H   0  0  0  0  0  0  0  0  0114  0  0
    1.1424   -4.4860    1.3985 C   0  0  1  0  0  0  0  0  0115  0  0
    0.9175   -3.6080    0.7828 H   0  0  0  0  0  0  0  0  0116  0  0
    2.3716   -4.1662    2.2600 C   0  0  2  0  0  0  0  0  0117  0  0
    2.3600   -3.0924    2.4715 H   0  0  0  0  0  0  0  0  0118  0  0
    3.2590   -4.3701    1.6501 H   0  0  0  0  0  0  0  0  0119  0  0
   -1.8646   -6.6823   -0.5437 O   0  0  0  0  0  0  0  0  0120  0  0
   -2.3697   -5.7288    2.0824 O   0  0  0  0  0  0  0  0  0121  0  0
   -0.5042   -3.7631    3.0286 O   0  0  0  0  0  0  0  0  0122  0  0
    1.4544   -5.6088    0.5348 O   0  0  0  0  0  0  0  0  0123  0  0
    2.4756   -4.9366    3.4486 O   0  0  0  0  0  0  0  0  0124  0  0
    3.0647    3.1169    4.3912 H   0  0  0  0  0  0  0  0  0125  0  0
    2.9511    2.4096    6.0253 H   0  0  0  0  0  0  0  0  0126  0  0
   -3.7091   -3.2963    4.4101 H   0  0  0  0  0  0  0  0  0127  0  0
   -3.0371   -0.3386    5.0792 H   0  0  0  0  0  0  0  0  0128  0  0
    2.6356   -1.3878    7.3557 H   0  0  0  0  0  0  0  0  0129  0  0
    2.9790    4.6803    6.2279 H   0  0  0  0  0  0  0  0  0130  0  0
   -3.4312    2.0168    4.3929 H   0  0  0  0  0  0  0  0  0131  0  0
   -1.8928    4.4130    3.4690 H   0  0  0  0  0  0  0  0  0132  0  0
   -0.5624    6.5741    3.9072 H   0  0  0  0  0  0  0  0  0133  0  0
   -2.0747    6.4633    1.2222 H   0  0  0  0  0  0  0  0  0134  0  0
    3.8060    5.5035   -1.7512 H   0  0  0  0  0  0  0  0  0135  0  0
    0.5358    5.8477   -5.7803 H   0  0  0  0  0  0  0  0  0136  0  0
   -2.5451    5.2683   -0.8266 H   0  0  0  0  0  0  0  0  0137  0  0
   -3.7111    2.8708   -2.9981 H   0  0  0  0  0  0  0  0  0138  0  0
   -2.9692    1.5661   -5.1611 H   0  0  0  0  0  0  0  0  0139  0  0
   -3.2702   -1.2296   -5.6791 H   0  0  0  0  0  0  0  0  0140  0  0
    3.1894   -1.7242   -7.3189 H   0  0  0  0  0  0  0  0  0141  0  0
   -1.6700   -3.5111   -5.5682 H   0  0  0  0  0  0  0  0  0142  0  0
   -1.6542   -6.0081   -2.4420 H   0  0  0  0  0  0  0  0  0143  0  0
    2.8784   -5.4077   -0.8115 H   0  0  0  0  0  0  0  0  0144  0  0
   -2.6910   -6.7060   -0.0394 H   0  0  0  0  0  0  0  0  0145  0  0
   -2.6531   -5.0299    2.7017 H   0  0  0  0  0  0  0  0  0146  0  0
    1.9768   -4.4659    4.1363 H   0  0  0  0  0  0  0  0  0147  0  0
  1  2  1  6
  1  3  1  0
  1 17  1  0
  1122  1  0
  3  4  1  1
  3  5  1  0
  3 14  1  0
  5  6  1  6
  5  7  1  0
  5 15  1  0
  7  8  1  1
  7  9  1  0
  7 16  1  0
  9 10  1  6
  9 11  1  0
  9 17  1  0
 11 12  1  1
 11 13  1  0
 11 18  1  0
 14127  1  0
 15128  1  0
 16 19  1  0
 18129  1  0
 19 20  1  1
 19 21  1  0
 19 34  1  0
 21 22  1  1
 21 23  1  0
 21 31  1  0
 23 24  1  6
 23 25  1  0
 23 32  1  0
 25 26  1  1
 25 27  1  0
 25 33  1  0
 27 28  1  6
 27 29  1  0
 27 34  1  0
 29 30  1  0
 29125  1  6
 29126  1  0
 30130  1  0
 31131  1  0
 32132  1  0
 33 35  1  0
 35 36  1  1
 35 37  1  0
 35 51  1  0
 37 38  1  6
 37 39  1  0
 37 48  1  0
 39 40  1  1
 39 41  1  0
 39 49  1  0
 41 42  1  6
 41 43  1  0
 41 50  1  0
 43 44  1  1
 43 45  1  0
 43 51  1  0
 45 46  1  6
 45 47  1  0
 45 52  1  0
 48133  1  0
 49134  1  0
 50 53  1  0
 52135  1  0
 53 54  1  1
 53 55  1  0
 53 70  1  0
 55 56  1  6
 55 57  1  0
 55 67  1  0
 57 58  1  1
 57 59  1  0
 57 68  1  0
 59 60  1  6
 59 61  1  0
 59 69  1  0
 61 62  1  1
 61 63  1  0
 61 70  1  0
 63 64  1  6
 63 65  1  0
 63 66  1  0
 66136  1  0
 67137  1  0
 68138  1  0
 69 71  1  0
 71 72  1  6
 71 73  1  0
 71 87  1  0
 73 74  1  6
 73 75  1  0
 73 84  1  0
 75 76  1  1
 75 77  1  0
 75 85  1  0
 77 78  1  6
 77 79  1  0
 77 86  1  0
 79 80  1  1
 79 81  1  0
 79 87  1  0
 81 82  1  1
 81 83  1  0
 81 88  1  0
 84139  1  0
 85140  1  0
 86 89  1  0
 88141  1  0
 89 90  1  6
 89 91  1  0
 89105  1  0
 91 92  1  6
 91 93  1  0
 91102  1  0
 93 94  1  1
 93 95  1  0
 93103  1  0
 95 96  1  6
 95 97  1  0
 95104  1  0
 97 98  1  1
 97 99  1  0
 97105  1  0
 99100  1  1
 99101  1  0
 99106  1  0
102142  1  0
103143  1  0
104107  1  0
106144  1  0
107108  1  6
107109  1  0
107123  1  0
109110  1  1
109111  1  0
109120  1  0
111112  1  6
111113  1  0
111121  1  0
113114  1  1
113115  1  0
113122  1  0
115116  1  6
115117  1  0
115123  1  0
117118  1  1
117119  1  0
117124  1  0
120145  1  0
121146  1  0
124147  1  0
M  END
