
     RDKit          3D

175182  0  0  0  0  0  0  0  0999 V2000
   -0.6018   -3.9534    4.3677 C   0  0  2  0  0  0  0  0  0  1  0  0
   -0.5716   -5.0195    4.6135 H   0  0  0  0  0  0  0  0  0  2  0  0
   -1.8831   -3.3134    4.8991 C   0  0  1  0  0  0  0  0  0  3  0  0
   -1.9437   -3.5206    5.9772 H   0  0  0  0  0  0  0  0  0  4  0  0
   -1.8318   -1.8092    4.6892 C   0  0  2  0  0  0  0  0  0  5  0  0
   -1.7693   -1.6142    3.6123 H   0  0  0  0  0  0  0  0  0  6  0  0
   -0.5691   -1.2287    5.3197 C   0  0  1  0  0  0  0  0  0  7  0  0
   -0.6079   -1.3045    6.4113 H   0  0  0  0  0  0  0  0  0  8  0  0
    0.6731   -1.9626    4.7920 C   0  0  1  0  0  0  0  0  0  9  0  0
    0.7677   -1.7653    3.7160 H   0  0  0  0  0  0  0  0  0 10  0  0
    1.9560   -1.5267    5.4728 C   0  0  2  0  0  0  0  0  0 11  0  0
    2.1743   -0.4978    5.1493 H   0  0  0  0  0  0  0  0  0 12  0  0
    2.7670   -2.1799    5.1171 H   0  0  0  0  0  0  0  0  0 13  0  0
   -2.9989   -3.8825    4.2222 O   0  0  0  0  0  0  0  0  0 14  0  0
   -3.0274   -1.2821    5.2364 O   0  0  0  0  0  0  0  0  0 15  0  0
   -0.4739    0.1389    4.9072 O   0  0  0  0  0  0  0  0  0 16  0  0
    0.5270   -3.3821    5.0189 O   0  0  0  0  0  0  0  0  0 17  0  0
    1.7826   -1.6064    6.8797 O   0  0  0  0  0  0  0  0  0 18  0  0
   -0.6974    1.1732    5.8257 C   0  0  2  0  0  0  0  0  0 19  0  0
   -1.0311    0.7888    6.7945 H   0  0  0  0  0  0  0  0  0 20  0  0
   -1.7180    2.1439    5.2164 C   0  0  1  0  0  0  0  0  0 21  0  0
   -1.8362    2.9846    5.9166 H   0  0  0  0  0  0  0  0  0 22  0  0
   -1.1755    2.6554    3.8822 C   0  0  2  0  0  0  0  0  0 23  0  0
   -1.0428    1.7973    3.2183 H   0  0  0  0  0  0  0  0  0 24  0  0
    0.1763    3.3171    4.1056 C   0  0  1  0  0  0  0  0  0 25  0  0
    0.0493    4.2340    4.6882 H   0  0  0  0  0  0  0  0  0 26  0  0
    1.1177    2.3753    4.8780 C   0  0  1  0  0  0  0  0  0 27  0  0
    1.3428    1.5228    4.2291 H   0  0  0  0  0  0  0  0  0 28  0  0
    2.4279    3.0501    5.2475 C   0  0  2  0  0  0  0  0  0 29  0  0
    2.1627    4.3482    5.7813 O   0  0  0  0  0  0  0  0  0 30  0  0
   -2.9700    1.4973    5.0211 O   0  0  0  0  0  0  0  0  0 31  0  0
   -2.1415    3.5016    3.2607 O   0  0  0  0  0  0  0  0  0 32  0  0
    0.7554    3.5995    2.8279 O   0  0  0  0  0  0  0  0  0 33  0  0
    0.4956    1.9016    6.0784 O   0  0  0  0  0  0  0  0  0 34  0  0
    1.2558    4.9027    2.5948 C   0  0  2  0  0  0  0  0  0 35  0  0
    1.7894    5.2716    3.4799 H   0  0  0  0  0  0  0  0  0 36  0  0
    0.1327    5.8720    2.1717 C   0  0  1  0  0  0  0  0  0 37  0  0
    0.5891    6.8468    1.9562 H   0  0  0  0  0  0  0  0  0 38  0  0
   -0.5424    5.3453    0.9120 C   0  0  2  0  0  0  0  0  0 39  0  0
   -1.0045    4.3772    1.1369 H   0  0  0  0  0  0  0  0  0 40  0  0
    0.5073    5.1675   -0.1814 C   0  0  1  0  0  0  0  0  0 41  0  0
    0.9046    6.1449   -0.4772 H   0  0  0  0  0  0  0  0  0 42  0  0
    1.6680    4.3004    0.3235 C   0  0  1  0  0  0  0  0  0 43  0  0
    1.2898    3.2827    0.4853 H   0  0  0  0  0  0  0  0  0 44  0  0
    2.8176    4.2408   -0.6690 C   0  0  2  0  0  0  0  0  0 45  0  0
    2.4807    3.6631   -1.5411 H   0  0  0  0  0  0  0  0  0 46  0  0
    3.6476    3.6939   -0.1925 H   0  0  0  0  0  0  0  0  0 47  0  0
   -0.8990    6.0282    3.1615 O   0  0  0  0  0  0  0  0  0 48  0  0
   -1.5335    6.2685    0.4412 O   0  0  0  0  0  0  0  0  0 49  0  0
   -0.0587    4.4968   -1.3009 O   0  0  0  0  0  0  0  0  0 50  0  0
    2.1946    4.8238    1.5576 O   0  0  0  0  0  0  0  0  0 51  0  0
    3.1968    5.5582   -1.0244 O   0  0  0  0  0  0  0  0  0 52  0  0
   -0.6245    5.3128   -2.3146 C   0  0  2  0  0  0  0  0  0 53  0  0
   -0.6885    6.3500   -1.9737 H   0  0  0  0  0  0  0  0  0 54  0  0
   -2.0181    4.7647   -2.6519 C   0  0  1  0  0  0  0  0  0 55  0  0
   -2.4596    5.4431   -3.3990 H   0  0  0  0  0  0  0  0  0 56  0  0
   -1.8931    3.3781   -3.2753 C   0  0  2  0  0  0  0  0  0 57  0  0
   -1.5266    2.6942   -2.5009 H   0  0  0  0  0  0  0  0  0 58  0  0
   -0.9044    3.3720   -4.4305 C   0  0  1  0  0  0  0  0  0 59  0  0
   -1.3353    3.9072   -5.2843 H   0  0  0  0  0  0  0  0  0 60  0  0
    0.4202    4.0406   -4.0369 C   0  0  1  0  0  0  0  0  0 61  0  0
    0.9183    3.4013   -3.2948 H   0  0  0  0  0  0  0  0  0 62  0  0
    1.3458    4.2441   -5.2293 C   0  0  2  0  0  0  0  0  0 63  0  0
    1.5753    3.2730   -5.6764 H   0  0  0  0  0  0  0  0  0 64  0  0
    2.2841    4.6935   -4.8696 H   0  0  0  0  0  0  0  0  0 65  0  0
    0.7330    5.0356   -6.2345 O   0  0  0  0  0  0  0  0  0 66  0  0
   -2.8542    4.6401   -1.5169 O   0  0  0  0  0  0  0  0  0 67  0  0
   -3.1500    2.9241   -3.7697 O   0  0  0  0  0  0  0  0  0 68  0  0
   -0.6452    2.0127   -4.7500 O   0  0  0  0  0  0  0  0  0 69  0  0
    0.1977    5.3363   -3.4609 O   0  0  0  0  0  0  0  0  0 70  0  0
   -0.6302    1.6009   -6.1230 C   0  0  2  0  0  0  0  0  0 71  0  0
   -0.7515    2.4689   -6.7780 H   0  0  0  0  0  0  0  0  0 72  0  0
   -1.7683    0.5911   -6.3070 C   0  0  1  0  0  0  0  0  0 73  0  0
   -1.7685    0.2690   -7.3541 H   0  0  0  0  0  0  0  0  0 74  0  0
   -1.5126   -0.6294   -5.4203 C   0  0  2  0  0  0  0  0  0 75  0  0
   -1.5642   -0.3042   -4.3701 H   0  0  0  0  0  0  0  0  0 76  0  0
   -0.1269   -1.2009   -5.6789 C   0  0  1  0  0  0  0  0  0 77  0  0
   -0.1155   -1.6773   -6.6637 H   0  0  0  0  0  0  0  0  0 78  0  0
    0.9432   -0.0997   -5.6064 C   0  0  1  0  0  0  0  0  0 79  0  0
    0.9879    0.2398   -4.5697 H   0  0  0  0  0  0  0  0  0 80  0  0
    2.3285   -0.5939   -5.9772 C   0  0  2  0  0  0  0  0  0 81  0  0
    2.6675   -1.2653   -5.1781 H   0  0  0  0  0  0  0  0  0 82  0  0
    3.0029    0.2737   -6.0066 H   0  0  0  0  0  0  0  0  0 83  0  0
   -3.0458    1.1449   -6.0521 O   0  0  0  0  0  0  0  0  0 84  0  0
   -2.4792   -1.6414   -5.6670 O   0  0  0  0  0  0  0  0  0 85  0  0
    0.1388   -2.1457   -4.6471 O   0  0  0  0  0  0  0  0  0 86  0  0
    0.6102    1.0286   -6.4391 O   0  0  0  0  0  0  0  0  0 87  0  0
    2.2669   -1.2613   -7.2358 O   0  0  0  0  0  0  0  0  0 88  0  0
    0.8165   -3.3582   -4.9983 C   0  0  2  0  0  0  0  0  0 89  0  0
    1.2451   -3.2659   -6.0000 H   0  0  0  0  0  0  0  0  0 90  0  0
   -0.2101   -4.5034   -4.9478 C   0  0  1  0  0  0  0  0  0 91  0  0
    0.2921   -5.4257   -5.2625 H   0  0  0  0  0  0  0  0  0 92  0  0
   -0.6849   -4.6934   -3.5040 C   0  0  2  0  0  0  0  0  0 93  0  0
   -1.2622   -3.7988   -3.2135 H   0  0  0  0  0  0  0  0  0 94  0  0
    0.5302   -4.7878   -2.5777 C   0  0  1  0  0  0  0  0  0 95  0  0
    1.0706   -5.7155   -2.7942 H   0  0  0  0  0  0  0  0  0 96  0  0
    1.5035   -3.6243   -2.7390 C   0  0  1  0  0  0  0  0  0 97  0  0
    0.9872   -2.6942   -2.4711 H   0  0  0  0  0  0  0  0  0 98  0  0
    2.7666   -3.7468   -1.8714 C   0  0  2  0  0  0  0  0  0 99  0  0
    2.5642   -3.2713   -0.9018 H   0  0  0  0  0  0  0  0  0100  0  0
    3.5509   -3.1628   -2.3597 H   0  0  0  0  0  0  0  0  0101  0  0
   -1.2448   -4.2735   -5.8763 O   0  0  0  0  0  0  0  0  0102  0  0
   -1.4661   -5.8650   -3.4157 O   0  0  0  0  0  0  0  0  0103  0  0
    0.0245   -4.8144   -1.2329 O   0  0  0  0  0  0  0  0  0104  0  0
    1.8986   -3.5496   -4.1202 O   0  0  0  0  0  0  0  0  0105  0  0
    3.2296   -5.0744   -1.6908 O   0  0  0  0  0  0  0  0  0106  0  0
    0.3516   -5.9141   -0.4309 C   0  0  2  0  0  0  0  0  0107  0  0
    0.7294   -6.7433   -1.0370 H   0  0  0  0  0  0  0  0  0108  0  0
   -0.8973   -6.3437    0.3421 C   0  0  1  0  0  0  0  0  0109  0  0
   -0.6325   -7.2281    0.9404 H   0  0  0  0  0  0  0  0  0110  0  0
   -1.3160   -5.2321    1.2912 C   0  0  2  0  0  0  0  0  0111  0  0
   -1.5969   -4.3564    0.6874 H   0  0  0  0  0  0  0  0  0112  0  0
   -0.1319   -4.8550    2.1735 C   0  0  1  0  0  0  0  0  0113  0  0
    0.1401   -5.7087    2.8041 H   0  0  0  0  0  0  0  0  0114  0  0
    1.0957   -4.4750    1.3472 C   0  0  1  0  0  0  0  0  0115  0  0
    0.8704   -3.5955    0.7337 H   0  0  0  0  0  0  0  0  0116  0  0
    2.3294   -4.1594    2.2039 C   0  0  2  0  0  0  0  0  0117  0  0
    2.3213   -3.0859    2.4170 H   0  0  0  0  0  0  0  0  0118  0  0
    3.2137   -4.3646    1.5899 H   0  0  0  0  0  0  0  0  0119  0  0
   -1.9248   -6.6610   -0.5854 O   0  0  0  0  0  0  0  0  0120  0  0
   -2.4164   -5.7103    2.0442 O   0  0  0  0  0  0  0  0  0121  0  0
   -0.5421   -3.7505    2.9853 O   0  0  0  0  0  0  0  0  0122  0  0
    1.4014   -5.5972    0.4804 O   0  0  0  0  0  0  0  0  0123  0  0
    2.4366   -4.9319    3.3909 O   0  0  0  0  0  0  0  0  0124  0  0
    3.0493    3.1187    4.3430 H   0  0  0  0  0  0  0  0  0125  0  0
    2.9410    2.4093    5.9765 H   0  0  0  0  0  0  0  0  0126  0  0
   -3.7399   -3.2781    4.3813 H   0  0  0  0  0  0  0  0  0127  0  0
   -3.0579   -0.3230    5.0519 H   0  0  0  0  0  0  0  0  0128  0  0
    2.6219   -1.3894    7.3026 H   0  0  0  0  0  0  0  0  0129  0  0
    2.9753    4.6796    6.1823 H   0  0  0  0  0  0  0  0  0130  0  0
   -3.4492    2.0344    4.3708 H   0  0  0  0  0  0  0  0  0131  0  0
   -1.9089    4.4282    3.4439 H   0  0  0  0  0  0  0  0  0132  0  0
   -0.5713    6.5855    3.8796 H   0  0  0  0  0  0  0  0  0133  0  0
   -2.0954    6.4824    1.2010 H   0  0  0  0  0  0  0  0  0134  0  0
    3.7702    5.5127   -1.7990 H   0  0  0  0  0  0  0  0  0135  0  0
    0.4836    5.8708   -5.8136 H   0  0  0  0  0  0  0  0  0136  0  0
   -2.5775    5.2916   -0.8476 H   0  0  0  0  0  0  0  0  0137  0  0
   -3.7585    2.9001   -3.0177 H   0  0  0  0  0  0  0  0  0138  0  0
   -3.0291    1.5969   -5.1857 H   0  0  0  0  0  0  0  0  0139  0  0
   -3.3392   -1.1973   -5.7066 H   0  0  0  0  0  0  0  0  0140  0  0
    3.1122   -1.7051   -7.3748 H   0  0  0  0  0  0  0  0  0141  0  0
   -1.7440   -3.4829   -5.6059 H   0  0  0  0  0  0  0  0  0142  0  0
   -1.7209   -5.9845   -2.4836 H   0  0  0  0  0  0  0  0  0143  0  0
    2.8201   -5.3976   -0.8716 H   0  0  0  0  0  0  0  0  0144  0  0
   -2.7492   -6.6835   -0.0776 H   0  0  0  0  0  0  0  0  0145  0  0
   -2.6954   -5.0116    2.6658 H   0  0  0  0  0  0  0  0  0146  0  0
    1.9419   -4.4610    4.0814 H   0  0  0  0  0  0  0  0  0147  0  0
   -0.9769    0.6626    0.0000 N   0  0  0  0  0  0  0  0  0148  0  0
   -0.5457   -0.1457    1.1389 C   0  0  2  0  0  0  0  0  0149  0  0
   -1.5791    0.0889    2.2489 C   0  0  0  0  0  0  0  0  0150  0  0
   -2.4753   -0.6647    2.5206 O   0  0  0  0  0  0  0  0  0151  0  0
   -1.4970    1.3054    2.8744 O   0  0  0  0  0  0  0  0  0152  0  0
    0.9112    0.1179    1.5819 C   0  0  2  0  0  0  0  0  0153  0  0
    1.8968    0.0184    0.4419 C   0  0  0  0  0  0  0  0  0154  0  0
    2.4427    1.1782   -0.1217 C   0  0  0  0  0  0  0  0  0155  0  0
    2.2577   -1.2297   -0.0851 C   0  0  0  0  0  0  0  0  0156  0  0
    3.3485    1.0975   -1.1815 C   0  0  0  0  0  0  0  0  0157  0  0
    3.1434   -1.3112   -1.1591 C   0  0  0  0  0  0  0  0  0158  0  0
    3.6917   -0.1483   -1.7087 C   0  0  0  0  0  0  0  0  0159  0  0
   -1.8629    1.0465   -2.2275 C   0  0  2  0  0  0  0  0  0160  0  0
   -1.1534    0.1254   -1.2514 C   0  0  0  0  0  0  0  0  0161  0  0
   -0.7715   -1.0015   -1.5444 O   0  0  0  0  0  0  0  0  0162  0  0
   -1.3985    1.5588    0.1925 H   0  0  0  0  0  0  0  0  0163  0  0
   -0.6390   -1.1850    0.8287 H   0  0  0  0  0  0  0  0  0164  0  0
   -0.6093    1.6808    2.7658 H   0  0  0  0  0  0  0  0  0165  0  0
    1.1464   -0.6054    2.3710 H   0  0  0  0  0  0  0  0  0166  0  0
    1.0040    1.1116    2.0374 H   0  0  0  0  0  0  0  0  0167  0  0
    2.1673    2.1543    0.2699 H   0  0  0  0  0  0  0  0  0168  0  0
    1.8435   -2.1402    0.3418 H   0  0  0  0  0  0  0  0  0169  0  0
    3.7674    2.0081   -1.5976 H   0  0  0  0  0  0  0  0  0170  0  0
    3.3950   -2.2795   -1.5793 H   0  0  0  0  0  0  0  0  0171  0  0
    4.3733   -0.2152   -2.5523 H   0  0  0  0  0  0  0  0  0172  0  0
   -2.8620    1.2996   -1.8559 H   0  0  0  0  0  0  0  0  0173  0  0
   -1.9617    0.5281   -3.1811 H   0  0  0  0  0  0  0  0  0174  0  0
   -1.3048    1.9765   -2.3688 H   0  0  0  0  0  0  0  0  0175  0  0
  1  2  1  6
  1  3  1  0
  1 17  1  0
  1122  1  0
  3  4  1  1
  3  5  1  0
  3 14  1  0
  5  6  1  6
  5  7  1  0
  5 15  1  0
  7  8  1  1
  7  9  1  0
  7 16  1  0
  9 10  1  6
  9 11  1  0
  9 17  1  0
 11 12  1  1
 11 13  1  0
 11 18  1  0
 14127  1  0
 15128  1  0
 16 19  1  0
 18129  1  0
 19 20  1  1
 19 21  1  0
 19 34  1  0
 21 22  1  1
 21 23  1  0
 21 31  1  0
 23 24  1  6
 23 25  1  0
 23 32  1  0
 25 26  1  1
 25 27  1  0
 25 33  1  0
 27 28  1  6
 27 29  1  0
 27 34  1  0
 29 30  1  0
 29125  1  6
 29126  1  0
 30130  1  0
 31131  1  0
 32132  1  0
 33 35  1  0
 35 36  1  1
 35 37  1  0
 35 51  1  0
 37 38  1  6
 37 39  1  0
 37 48  1  0
 39 40  1  1
 39 41  1  0
 39 49  1  0
 41 42  1  6
 41 43  1  0
 41 50  1  0
 43 44  1  1
 43 45  1  0
 43 51  1  0
 45 46  1  6
 45 47  1  0
 45 52  1  0
 48133  1  0
 49134  1  0
 50 53  1  0
 52135  1  0
 53 54  1  1
 53 55  1  0
 53 70  1  0
 55 56  1  6
 55 57  1  0
 55 67  1  0
 57 58  1  1
 57 59  1  0
 57 68  1  0
 59 60  1  6
 59 61  1  0
 59 69  1  0
 61 62  1  1
 61 63  1  0
 61 70  1  0
 63 64  1  6
 63 65  1  0
 63 66  1  0
 66136  1  0
 67137  1  0
 68138  1  0
 69 71  1  0
 71 72  1  6
 71 73  1  0
 71 87  1  0
 73 74  1  6
 73 75  1  0
 73 84  1  0
 75 76  1  1
 75 77  1  0
 75 85  1  0
 77 78  1  6
 77 79  1  0
 77 86  1  0
 79 80  1  1
 79 81  1  0
 79 87  1  0
 81 82  1  1
 81 83  1  0
 81 88  1  0
 84139  1  0
 85140  1  0
 86 89  1  0
 88141  1  0
 89 90  1  6
 89 91  1  0
 89105  1  0
 91 92  1  6
 91 93  1  0
 91102  1  0
 93 94  1  1
 93 95  1  0
 93103  1  0
 95 96  1  6
 95 97  1  0
 95104  1  0
 97 98  1  1
 97 99  1  0
 97105  1  0
 99100  1  1
 99101  1  0
 99106  1  0
102142  1  0
103143  1  0
104107  1  0
106144  1  0
107108  1  6
107109  1  0
107123  1  0
109110  1  1
109111  1  0
109120  1  0
111112  1  6
111113  1  0
111121  1  0
113114  1  1
113115  1  0
113122  1  0
115116  1  6
115117  1  0
115123  1  0
117118  1  1
117119  1  0
117124  1  0
120145  1  0
121146  1  0
124147  1  0
148149  1  0
148161  1  0
148163  1  0
149150  1  0
149153  1  0
149164  1  6
150151  2  0
150152  1  0
152165  1  0
153154  1  0
153166  1  1
153167  1  0
154155  4  0
154156  4  0
155157  4  0
155168  1  0
156158  4  0
156169  1  0
157159  4  0
157170  1  0
158159  4  0
158171  1  0
159172  1  0
160161  1  0
160173  1  1
160174  1  0
160175  1  0
161162  2  0
M  END
