
     RDKit          3D

175182  0  0  0  0  0  0  0  0999 V2000
   -0.5584   -3.9670    4.4089 C   0  0  2  0  0  0  0  0  0  1  0  0
   -0.5249   -5.0328    4.6558 H   0  0  0  0  0  0  0  0  0  2  0  0
   -1.8438   -3.3314    4.9357 C   0  0  1  0  0  0  0  0  0  3  0  0
   -1.9069   -3.5379    6.0139 H   0  0  0  0  0  0  0  0  0  4  0  0
   -1.7974   -1.8273    4.7246 C   0  0  2  0  0  0  0  0  0  5  0  0
   -1.7324   -1.6330    3.6478 H   0  0  0  0  0  0  0  0  0  6  0  0
   -0.5389   -1.2413    5.3585 C   0  0  1  0  0  0  0  0  0  7  0  0
   -0.5808   -1.3164    6.4501 H   0  0  0  0  0  0  0  0  0  8  0  0
    0.7077   -1.9711    4.8354 C   0  0  1  0  0  0  0  0  0  9  0  0
    0.8049   -1.7744    3.7594 H   0  0  0  0  0  0  0  0  0 10  0  0
    1.9868   -1.5297    5.5198 C   0  0  2  0  0  0  0  0  0 11  0  0
    2.2022   -0.5003    5.1959 H   0  0  0  0  0  0  0  0  0 12  0  0
    2.8014   -2.1801    5.1671 H   0  0  0  0  0  0  0  0  0 13  0  0
   -2.9553   -3.9054    4.2559 O   0  0  0  0  0  0  0  0  0 14  0  0
   -2.9967   -1.3041    5.2676 O   0  0  0  0  0  0  0  0  0 15  0  0
   -0.4476    0.1262    4.9451 O   0  0  0  0  0  0  0  0  0 16  0  0
    0.5663   -3.3909    5.0631 O   0  0  0  0  0  0  0  0  0 17  0  0
    1.8094   -1.6088    6.9261 O   0  0  0  0  0  0  0  0  0 18  0  0
   -0.6779    1.1605    5.8619 C   0  0  2  0  0  0  0  0  0 19  0  0
   -1.0131    0.7757    6.8300 H   0  0  0  0  0  0  0  0  0 20  0  0
   -1.7002    2.1268    5.2485 C   0  0  1  0  0  0  0  0  0 21  0  0
   -1.8237    2.9676    5.9476 H   0  0  0  0  0  0  0  0  0 22  0  0
   -1.1555    2.6391    3.9155 C   0  0  2  0  0  0  0  0  0 23  0  0
   -1.0175    1.7809    3.2529 H   0  0  0  0  0  0  0  0  0 24  0  0
    0.1931    3.3061    4.1426 C   0  0  1  0  0  0  0  0  0 25  0  0
    0.0609    4.2230    4.7239 H   0  0  0  0  0  0  0  0  0 26  0  0
    1.1357    2.3685    4.9187 C   0  0  1  0  0  0  0  0  0 27  0  0
    1.3660    1.5164    4.2713 H   0  0  0  0  0  0  0  0  0 28  0  0
    2.4421    3.0486    5.2916 C   0  0  2  0  0  0  0  0  0 29  0  0
    2.1704    4.3462    5.8234 O   0  0  0  0  0  0  0  0  0 30  0  0
   -2.9491    1.4753    5.0499 O   0  0  0  0  0  0  0  0  0 31  0  0
   -2.1228    3.4811    3.2902 O   0  0  0  0  0  0  0  0  0 32  0  0
    0.7752    3.5895    2.8664 O   0  0  0  0  0  0  0  0  0 33  0  0
    0.5116    1.8936    6.1177 O   0  0  0  0  0  0  0  0  0 34  0  0
    1.2713    4.8943    2.6336 C   0  0  2  0  0  0  0  0  0 35  0  0
    1.8007    5.2661    3.5201 H   0  0  0  0  0  0  0  0  0 36  0  0
    0.1459    5.8590    2.2062 C   0  0  1  0  0  0  0  0  0 37  0  0
    0.5993    6.8354    1.9912 H   0  0  0  0  0  0  0  0  0 38  0  0
   -0.5233    5.3286    0.9448 C   0  0  2  0  0  0  0  0  0 39  0  0
   -0.9824    4.3590    1.1692 H   0  0  0  0  0  0  0  0  0 40  0  0
    0.5304    5.1538   -0.1451 C   0  0  1  0  0  0  0  0  0 41  0  0
    0.9250    6.1324   -0.4405 H   0  0  0  0  0  0  0  0  0 42  0  0
    1.6929    4.2916    0.3642 C   0  0  1  0  0  0  0  0  0 43  0  0
    1.3180    3.2726    0.5257 H   0  0  0  0  0  0  0  0  0 44  0  0
    2.8458    4.2354   -0.6247 C   0  0  2  0  0  0  0  0  0 45  0  0
    2.5137    3.6557   -1.4973 H   0  0  0  0  0  0  0  0  0 46  0  0
    3.6763    3.6921   -0.1451 H   0  0  0  0  0  0  0  0  0 47  0  0
   -0.8895    6.0123    3.1926 O   0  0  0  0  0  0  0  0  0 48  0  0
   -1.5164    6.2477    0.4701 O   0  0  0  0  0  0  0  0  0 49  0  0
   -0.0296    4.4800   -1.2657 O   0  0  0  0  0  0  0  0  0 50  0  0
    2.2136    4.8180    1.5995 O   0  0  0  0  0  0  0  0  0 51  0  0
    3.2211    5.5539   -0.9801 O   0  0  0  0  0  0  0  0  0 52  0  0
   -0.5952    5.2929   -2.2819 C   0  0  2  0  0  0  0  0  0 53  0  0
   -0.6642    6.3302   -1.9422 H   0  0  0  0  0  0  0  0  0 54  0  0
   -1.9857    4.7392   -2.6231 C   0  0  1  0  0  0  0  0  0 55  0  0
   -2.4275    5.4153   -3.3722 H   0  0  0  0  0  0  0  0  0 56  0  0
   -1.8536    3.3525   -3.2448 C   0  0  2  0  0  0  0  0  0 57  0  0
   -1.4868    2.6708   -2.4686 H   0  0  0  0  0  0  0  0  0 58  0  0
   -0.8613    3.3491   -4.3969 C   0  0  1  0  0  0  0  0  0 59  0  0
   -1.2915    3.8819   -5.2526 H   0  0  0  0  0  0  0  0  0 60  0  0
    0.4595    4.0231   -3.9999 C   0  0  1  0  0  0  0  0  0 61  0  0
    0.9578    3.3863   -3.2556 H   0  0  0  0  0  0  0  0  0 62  0  0
    1.3881    4.2290   -5.1895 C   0  0  2  0  0  0  0  0  0 63  0  0
    1.6227    3.2583   -5.6350 H   0  0  0  0  0  0  0  0  0 64  0  0
    2.3236    4.6822   -4.8274 H   0  0  0  0  0  0  0  0  0 65  0  0
    0.7755    5.0172   -6.1974 O   0  0  0  0  0  0  0  0  0 66  0  0
   -2.8248    4.6125   -1.4906 O   0  0  0  0  0  0  0  0  0 67  0  0
   -3.1072    2.8934   -3.7427 O   0  0  0  0  0  0  0  0  0 68  0  0
   -0.5960    1.9905   -4.7144 O   0  0  0  0  0  0  0  0  0 69  0  0
    0.2304    5.3184   -3.4257 O   0  0  0  0  0  0  0  0  0 70  0  0
   -0.5751    1.5775   -6.0869 C   0  0  2  0  0  0  0  0  0 71  0  0
   -0.6977    2.4445   -6.7431 H   0  0  0  0  0  0  0  0  0 72  0  0
   -1.7088    0.5633   -6.2736 C   0  0  1  0  0  0  0  0  0 73  0  0
   -1.7046    0.2403   -7.3203 H   0  0  0  0  0  0  0  0  0 74  0  0
   -1.4513   -0.6554   -5.3849 C   0  0  2  0  0  0  0  0  0 75  0  0
   -1.5074   -0.3295   -4.3352 H   0  0  0  0  0  0  0  0  0 76  0  0
   -0.0626   -1.2219   -5.6387 C   0  0  1  0  0  0  0  0  0 77  0  0
   -0.0464   -1.6992   -6.6230 H   0  0  0  0  0  0  0  0  0 78  0  0
    1.0031   -0.1166   -5.5638 C   0  0  1  0  0  0  0  0  0 79  0  0
    1.0433    0.2240   -4.5274 H   0  0  0  0  0  0  0  0  0 80  0  0
    2.3914   -0.6059   -5.9299 C   0  0  2  0  0  0  0  0  0 81  0  0
    2.7304   -1.2753   -5.1291 H   0  0  0  0  0  0  0  0  0 82  0  0
    3.0626    0.2642   -5.9581 H   0  0  0  0  0  0  0  0  0 83  0  0
   -2.9892    1.1125   -6.0231 O   0  0  0  0  0  0  0  0  0 84  0  0
   -2.4133   -1.6712   -5.6337 O   0  0  0  0  0  0  0  0  0 85  0  0
    0.2034   -2.1647   -4.6052 O   0  0  0  0  0  0  0  0  0 86  0  0
    0.6684    1.0096   -6.3986 O   0  0  0  0  0  0  0  0  0 87  0  0
    2.3363   -1.2747   -7.1881 O   0  0  0  0  0  0  0  0  0 88  0  0
    0.8868   -3.3750   -4.9532 C   0  0  2  0  0  0  0  0  0 89  0  0
    1.3182   -3.2820   -5.9536 H   0  0  0  0  0  0  0  0  0 90  0  0
   -0.1357   -4.5240   -4.9048 C   0  0  1  0  0  0  0  0  0 91  0  0
    0.3710   -5.4447   -5.2171 H   0  0  0  0  0  0  0  0  0 92  0  0
   -0.6142   -4.7145   -3.4623 C   0  0  2  0  0  0  0  0  0 93  0  0
   -1.1958   -3.8218   -3.1744 H   0  0  0  0  0  0  0  0  0 94  0  0
    0.5984   -4.8035   -2.5322 C   0  0  1  0  0  0  0  0  0 95  0  0
    1.1429   -5.7293   -2.7461 H   0  0  0  0  0  0  0  0  0 96  0  0
    1.5678   -3.6365   -2.6915 C   0  0  1  0  0  0  0  0  0 97  0  0
    1.0471   -2.7081   -2.4261 H   0  0  0  0  0  0  0  0  0 98  0  0
    2.8286   -3.7534   -1.8199 C   0  0  2  0  0  0  0  0  0 99  0  0
    2.6213   -3.2778   -0.8513 H   0  0  0  0  0  0  0  0  0100  0  0
    3.6122   -3.1669   -2.3063 H   0  0  0  0  0  0  0  0  0101  0  0
   -1.1683   -4.2989   -5.8367 O   0  0  0  0  0  0  0  0  0102  0  0
   -1.3912   -5.8890   -3.3754 O   0  0  0  0  0  0  0  0  0103  0  0
    0.0885   -4.8308   -1.1889 O   0  0  0  0  0  0  0  0  0104  0  0
    1.9669   -3.5615   -4.0715 O   0  0  0  0  0  0  0  0  0105  0  0
    3.2960   -5.0791   -1.6366 O   0  0  0  0  0  0  0  0  0106  0  0
    0.4173   -5.9285   -0.3849 C   0  0  2  0  0  0  0  0  0107  0  0
    0.8001   -6.7568   -0.9890 H   0  0  0  0  0  0  0  0  0108  0  0
   -0.8324   -6.3621    0.3847 C   0  0  1  0  0  0  0  0  0109  0  0
   -0.5660   -7.2450    0.9845 H   0  0  0  0  0  0  0  0  0110  0  0
   -1.2582   -5.2512    1.3314 C   0  0  2  0  0  0  0  0  0111  0  0
   -1.5405   -4.3771    0.7259 H   0  0  0  0  0  0  0  0  0112  0  0
   -0.0783   -4.8688    2.2170 C   0  0  1  0  0  0  0  0  0113  0  0
    0.1950   -5.7210    2.8493 H   0  0  0  0  0  0  0  0  0114  0  0
    1.1505   -4.4850    1.3942 C   0  0  1  0  0  0  0  0  0115  0  0
    0.9237   -3.6069    0.7792 H   0  0  0  0  0  0  0  0  0116  0  0
    2.3803   -4.1640    2.2545 C   0  0  2  0  0  0  0  0  0117  0  0
    2.3675   -3.0904    2.4665 H   0  0  0  0  0  0  0  0  0118  0  0
    3.2673   -4.3664    1.6433 H   0  0  0  0  0  0  0  0  0119  0  0
   -1.8558   -6.6842   -0.5458 O   0  0  0  0  0  0  0  0  0120  0  0
   -2.3591   -5.7329    2.0815 O   0  0  0  0  0  0  0  0  0121  0  0
   -0.4951   -3.7652    3.0266 O   0  0  0  0  0  0  0  0  0122  0  0
    1.4630   -5.6068    0.5294 O   0  0  0  0  0  0  0  0  0123  0  0
    2.4868   -4.9350    3.4425 O   0  0  0  0  0  0  0  0  0124  0  0
    3.0661    3.1188    4.3890 H   0  0  0  0  0  0  0  0  0125  0  0
    2.9554    2.4104    6.0228 H   0  0  0  0  0  0  0  0  0126  0  0
   -3.6990   -3.3036    4.4121 H   0  0  0  0  0  0  0  0  0127  0  0
   -3.0303   -0.3453    5.0821 H   0  0  0  0  0  0  0  0  0128  0  0
    2.6465   -1.3882    7.3514 H   0  0  0  0  0  0  0  0  0129  0  0
    2.9804    4.6810    6.2267 H   0  0  0  0  0  0  0  0  0130  0  0
   -3.4283    2.0099    4.3976 H   0  0  0  0  0  0  0  0  0131  0  0
   -1.8942    4.4087    3.4733 H   0  0  0  0  0  0  0  0  0132  0  0
   -0.5661    6.5714    3.9113 H   0  0  0  0  0  0  0  0  0133  0  0
   -2.0815    6.4601    1.2279 H   0  0  0  0  0  0  0  0  0134  0  0
    3.7970    5.5099   -1.7529 H   0  0  0  0  0  0  0  0  0135  0  0
    0.5217    5.8519   -5.7780 H   0  0  0  0  0  0  0  0  0136  0  0
   -2.5527    5.2657   -0.8210 H   0  0  0  0  0  0  0  0  0137  0  0
   -3.7180    2.8678   -2.9925 H   0  0  0  0  0  0  0  0  0138  0  0
   -2.9769    1.5653   -5.1571 H   0  0  0  0  0  0  0  0  0139  0  0
   -3.2748   -1.2304   -5.6764 H   0  0  0  0  0  0  0  0  0140  0  0
    3.1836   -1.7155   -7.3241 H   0  0  0  0  0  0  0  0  0141  0  0
   -1.6713   -3.5099   -5.5686 H   0  0  0  0  0  0  0  0  0142  0  0
   -1.6485   -6.0086   -2.4439 H   0  0  0  0  0  0  0  0  0143  0  0
    2.8852   -5.4031   -0.8184 H   0  0  0  0  0  0  0  0  0144  0  0
   -2.6816   -6.7093   -0.0405 H   0  0  0  0  0  0  0  0  0145  0  0
   -2.6427   -5.0347    2.7015 H   0  0  0  0  0  0  0  0  0146  0  0
    1.9881   -4.4653    4.1310 H   0  0  0  0  0  0  0  0  0147  0  0
    2.1446    0.6467   -0.1530 N   0  0  0  0  0  0  0  0  0148  0  0
    1.7154   -0.1573   -1.2958 C   0  0  2  0  0  0  0  0  0149  0  0
    2.7526    0.0788   -2.4018 C   0  0  2  0  0  0  0  0  0150  0  0
    0.2604    0.1103   -1.7424 C   0  0  2  0  0  0  0  0  0151  0  0
   -0.7290    0.0092   -0.6058 C   0  0  0  0  0  0  0  0  0152  0  0
   -1.2745    1.1682   -0.0403 C   0  0  0  0  0  0  0  0  0153  0  0
   -1.0938   -1.2398   -0.0837 C   0  0  0  0  0  0  0  0  0154  0  0
   -2.1836    1.0860    1.0164 C   0  0  0  0  0  0  0  0  0155  0  0
   -1.9830   -1.3230    0.9872 C   0  0  0  0  0  0  0  0  0156  0  0
   -2.5308   -0.1608    1.5387 C   0  0  0  0  0  0  0  0  0157  0  0
    3.0244    1.0221    2.0784 C   0  0  2  0  0  0  0  0  0158  0  0
    2.3162    0.1053    1.0972 C   0  0  0  0  0  0  0  0  0159  0  0
    1.9313   -1.0217    1.3856 O   0  0  0  0  0  0  0  0  0160  0  0
    2.5684    1.5427   -0.3415 H   0  0  0  0  0  0  0  0  0161  0  0
    1.8058   -1.1978   -0.9884 H   0  0  0  0  0  0  0  0  0162  0  0
    0.0263   -0.6101   -2.5345 H   0  0  0  0  0  0  0  0  0163  0  0
    0.1709    1.1057   -2.1952 H   0  0  0  0  0  0  0  0  0164  0  0
   -0.9960    2.1450   -0.4280 H   0  0  0  0  0  0  0  0  0165  0  0
   -0.6799   -2.1498   -0.5122 H   0  0  0  0  0  0  0  0  0166  0  0
   -2.6021    1.9961    1.4340 H   0  0  0  0  0  0  0  0  0167  0  0
   -2.2376   -2.2921    1.4037 H   0  0  0  0  0  0  0  0  0168  0  0
   -3.2151   -0.2290    2.3800 H   0  0  0  0  0  0  0  0  0169  0  0
    4.0251    1.2745    1.7106 H   0  0  0  0  0  0  0  0  0170  0  0
    3.1192    0.5006    3.0307 H   0  0  0  0  0  0  0  0  0171  0  0
    2.4675    1.9527    2.2209 H   0  0  0  0  0  0  0  0  0172  0  0
    2.2404    0.5361   -3.3117 H   0  0  0  0  0  0  0  0  0173  0  0
    3.2298   -0.9146   -2.6936 H   0  0  0  0  0  0  0  0  0174  0  0
    3.5582    0.7901   -2.0216 H   0  0  0  0  0  0  0  0  0175  0  0
  1  2  1  6
  1  3  1  0
  1 17  1  0
  1122  1  0
  3  4  1  1
  3  5  1  0
  3 14  1  0
  5  6  1  6
  5  7  1  0
  5 15  1  0
  7  8  1  1
  7  9  1  0
  7 16  1  0
  9 10  1  6
  9 11  1  0
  9 17  1  0
 11 12  1  1
 11 13  1  0
 11 18  1  0
 14127  1  0
 15128  1  0
 16 19  1  0
 18129  1  0
 19 20  1  1
 19 21  1  0
 19 34  1  0
 21 22  1  1
 21 23  1  0
 21 31  1  0
 23 24  1  6
 23 25  1  0
 23 32  1  0
 25 26  1  1
 25 27  1  0
 25 33  1  0
 27 28  1  6
 27 29  1  0
 27 34  1  0
 29 30  1  0
 29125  1  6
 29126  1  0
 30130  1  0
 31131  1  0
 32132  1  0
 33 35  1  0
 35 36  1  1
 35 37  1  0
 35 51  1  0
 37 38  1  6
 37 39  1  0
 37 48  1  0
 39 40  1  1
 39 41  1  0
 39 49  1  0
 41 42  1  6
 41 43  1  0
 41 50  1  0
 43 44  1  1
 43 45  1  0
 43 51  1  0
 45 46  1  6
 45 47  1  0
 45 52  1  0
 48133  1  0
 49134  1  0
 50 53  1  0
 52135  1  0
 53 54  1  1
 53 55  1  0
 53 70  1  0
 55 56  1  6
 55 57  1  0
 55 67  1  0
 57 58  1  1
 57 59  1  0
 57 68  1  0
 59 60  1  6
 59 61  1  0
 59 69  1  0
 61 62  1  1
 61 63  1  0
 61 70  1  0
 63 64  1  6
 63 65  1  0
 63 66  1  0
 66136  1  0
 67137  1  0
 68138  1  0
 69 71  1  0
 71 72  1  6
 71 73  1  0
 71 87  1  0
 73 74  1  6
 73 75  1  0
 73 84  1  0
 75 76  1  1
 75 77  1  0
 75 85  1  0
 77 78  1  6
 77 79  1  0
 77 86  1  0
 79 80  1  1
 79 81  1  0
 79 87  1  0
 81 82  1  1
 81 83  1  0
 81 88  1  0
 84139  1  0
 85140  1  0
 86 89  1  0
 88141  1  0
 89 90  1  6
 89 91  1  0
 89105  1  0
 91 92  1  6
 91 93  1  0
 91102  1  0
 93 94  1  1
 93 95  1  0
 93103  1  0
 95 96  1  6
 95 97  1  0
 95104  1  0
 97 98  1  1
 97 99  1  0
 97105  1  0
 99100  1  1
 99101  1  0
 99106  1  0
102142  1  0
103143  1  0
104107  1  0
106144  1  0
107108  1  6
107109  1  0
107123  1  0
109110  1  1
109111  1  0
109120  1  0
111112  1  6
111113  1  0
111121  1  0
113114  1  1
113115  1  0
113122  1  0
115116  1  6
115117  1  0
115123  1  0
117118  1  1
117119  1  0
117124  1  0
120145  1  0
121146  1  0
124147  1  0
148149  1  0
148159  1  0
148161  1  0
149150  1  0
149151  1  0
149162  1  1
151152  1  0
151163  1  6
151164  1  0
152153  4  0
152154  4  0
153155  4  0
153165  1  0
154156  4  0
154166  1  0
155157  4  0
155167  1  0
156157  4  0
156168  1  0
157169  1  0
158159  1  0
158170  1  6
158171  1  0
158172  1  0
159160  2  0
150173  1  6
150174  1  0
150175  1  0
M  END
