
     RDKit          3D

 28 28  0  0  0  0  0  0  0  0999 V2000
    2.1174    0.6691   -0.1896 N   0  0  0  0  0  0  0  0  0  1  0  0
    1.6787   -0.1581   -1.3119 C   0  0  2  0  0  0  0  0  0  2  0  0
    2.6915    0.0762   -2.4408 C   0  0  0  0  0  0  0  0  0  3  0  0
    3.5929   -0.6693   -2.7178 O   0  0  0  0  0  0  0  0  0  4  0  0
    2.5841    1.2841   -3.0791 O   0  0  0  0  0  0  0  0  0  5  0  0
    0.2118    0.0819   -1.7349 C   0  0  2  0  0  0  0  0  0  6  0  0
   -0.7545   -0.0164   -0.5783 C   0  0  0  0  0  0  0  0  0  7  0  0
   -1.3062    1.1431   -0.0197 C   0  0  0  0  0  0  0  0  0  8  0  0
   -1.0910   -1.2625   -0.0310 C   0  0  0  0  0  0  0  0  0  9  0  0
   -2.1941    1.0637    1.0552 C   0  0  0  0  0  0  0  0  0 10  0  0
   -1.9588   -1.3424    1.0577 C   0  0  0  0  0  0  0  0  0 11  0  0
   -2.5131   -0.1799    1.6022 C   0  0  0  0  0  0  0  0  0 12  0  0
    3.0333    1.0906    2.0190 C   0  0  2  0  0  0  0  0  0 13  0  0
    2.3203    0.1491    1.0651 C   0  0  0  0  0  0  0  0  0 14  0  0
    1.9575   -0.9789    1.3773 O   0  0  0  0  0  0  0  0  0 15  0  0
    2.5244    1.5681   -0.3992 H   0  0  0  0  0  0  0  0  0 16  0  0
    1.7901   -1.1924   -0.9911 H   0  0  0  0  0  0  0  0  0 17  0  0
    1.6935    1.6495   -2.9609 H   0  0  0  0  0  0  0  0  0 18  0  0
   -0.0264   -0.6537   -2.5116 H   0  0  0  0  0  0  0  0  0 19  0  0
    0.0993    1.0689   -2.2005 H   0  0  0  0  0  0  0  0  0 20  0  0
   -1.0494    2.1179   -0.4270 H   0  0  0  0  0  0  0  0  0 21  0  0
   -0.6721   -2.1727   -0.4538 H   0  0  0  0  0  0  0  0  0 22  0  0
   -2.6180    1.9738    1.4671 H   0  0  0  0  0  0  0  0  0 23  0  0
   -2.1913   -2.3087    1.4932 H   0  0  0  0  0  0  0  0  0 24  0  0
   -3.1804   -0.2454    2.4573 H   0  0  0  0  0  0  0  0  0 25  0  0
    4.0231    1.3518    1.6286 H   0  0  0  0  0  0  0  0  0 26  0  0
    3.1536    0.5849    2.9769 H   0  0  0  0  0  0  0  0  0 27  0  0
    2.4657    2.0152    2.1583 H   0  0  0  0  0  0  0  0  0 28  0  0
  1  2  1  0
  1 14  1  0
  1 16  1  0
  2  3  1  0
  2  6  1  0
  2 17  1  1
  3  4  2  0
  3  5  1  0
  5 18  1  0
  6  7  1  0
  6 19  1  6
  6 20  1  0
  7  8  4  0
  7  9  4  0
  8 10  4  0
  8 21  1  0
  9 11  4  0
  9 22  1  0
 10 12  4  0
 10 23  1  0
 11 12  4  0
 11 24  1  0
 12 25  1  0
 13 14  1  0
 13 26  1  6
 13 27  1  0
 13 28  1  0
 14 15  2  0
M  END
