
     RDKit          3D

187190  0  0  0  0  0  0  0  0999 V2000
   -0.5504   -3.9404    4.4072 C   0  0  2  0  0  0  0  0  0  1  0  0
   -0.5187   -5.0059    4.6553 H   0  0  0  0  0  0  0  0  0  2  0  0
   -1.8362   -3.3027    4.9303 C   0  0  1  0  0  0  0  0  0  3  0  0
   -1.9020   -3.5078    6.0086 H   0  0  0  0  0  0  0  0  0  4  0  0
   -1.7877   -1.7989    4.7177 C   0  0  2  0  0  0  0  0  0  5  0  0
   -1.7200   -1.6059    3.6407 H   0  0  0  0  0  0  0  0  0  6  0  0
   -0.5299   -1.2137    5.3536 C   0  0  1  0  0  0  0  0  0  7  0  0
   -0.5742   -1.2874    6.4452 H   0  0  0  0  0  0  0  0  0  8  0  0
    0.7170   -1.9454    4.8341 C   0  0  1  0  0  0  0  0  0  9  0  0
    0.8169   -1.7501    3.7582 H   0  0  0  0  0  0  0  0  0 10  0  0
    1.9952   -1.5047    5.5208 C   0  0  2  0  0  0  0  0  0 11  0  0
    2.2125   -0.4760    5.1963 H   0  0  0  0  0  0  0  0  0 12  0  0
    2.8097   -2.1565    5.1707 H   0  0  0  0  0  0  0  0  0 13  0  0
   -2.9469   -3.8762    4.2488 O   0  0  0  0  0  0  0  0  0 14  0  0
   -2.9875   -1.2737    5.2574 O   0  0  0  0  0  0  0  0  0 15  0  0
   -0.4360    0.1533    4.9388 O   0  0  0  0  0  0  0  0  0 16  0  0
    0.5735   -3.3648    5.0632 O   0  0  0  0  0  0  0  0  0 17  0  0
    1.8145   -1.5820    6.9269 O   0  0  0  0  0  0  0  0  0 18  0  0
   -0.6672    1.1889    5.8540 C   0  0  2  0  0  0  0  0  0 19  0  0
   -1.0050    0.8056    6.8218 H   0  0  0  0  0  0  0  0  0 20  0  0
   -1.6870    2.1557    5.2372 C   0  0  1  0  0  0  0  0  0 21  0  0
   -1.8111    2.9974    5.9351 H   0  0  0  0  0  0  0  0  0 22  0  0
   -1.1387    2.6659    3.9049 C   0  0  2  0  0  0  0  0  0 23  0  0
   -1.0003    1.8067    3.2435 H   0  0  0  0  0  0  0  0  0 24  0  0
    0.2101    3.3315    4.1341 C   0  0  1  0  0  0  0  0  0 25  0  0
    0.0776    4.2493    4.7141 H   0  0  0  0  0  0  0  0  0 26  0  0
    1.1499    2.3938    4.9134 C   0  0  1  0  0  0  0  0  0 27  0  0
    1.3806    1.5406    4.2675 H   0  0  0  0  0  0  0  0  0 28  0  0
    2.4563    3.0728    5.2885 C   0  0  2  0  0  0  0  0  0 29  0  0
    2.1849    4.3713    5.8182 O   0  0  0  0  0  0  0  0  0 30  0  0
   -2.9362    1.5054    5.0366 O   0  0  0  0  0  0  0  0  0 31  0  0
   -2.1037    3.5082    3.2765 O   0  0  0  0  0  0  0  0  0 32  0  0
    0.7953    3.6128    2.8589 O   0  0  0  0  0  0  0  0  0 33  0  0
    0.5226    1.9209    6.1115 O   0  0  0  0  0  0  0  0  0 34  0  0
    1.2935    4.9168    2.6258 C   0  0  2  0  0  0  0  0  0 35  0  0
    1.8214    5.2890    3.5130 H   0  0  0  0  0  0  0  0  0 36  0  0
    0.1701    5.8823    2.1948 C   0  0  1  0  0  0  0  0  0 37  0  0
    0.6252    6.8579    1.9796 H   0  0  0  0  0  0  0  0  0 38  0  0
   -0.4969    5.3512    0.9325 C   0  0  2  0  0  0  0  0  0 39  0  0
   -0.9576    4.3824    1.1570 H   0  0  0  0  0  0  0  0  0 40  0  0
    0.5590    5.1739   -0.1549 C   0  0  1  0  0  0  0  0  0 41  0  0
    0.9554    6.1517   -0.4506 H   0  0  0  0  0  0  0  0  0 42  0  0
    1.7194    4.3109    0.3580 C   0  0  1  0  0  0  0  0  0 43  0  0
    1.3430    3.2926    0.5198 H   0  0  0  0  0  0  0  0  0 44  0  0
    2.8744    4.2523   -0.6283 C   0  0  2  0  0  0  0  0  0 45  0  0
    2.5436    3.6719   -1.5010 H   0  0  0  0  0  0  0  0  0 46  0  0
    3.7033    3.7086   -0.1462 H   0  0  0  0  0  0  0  0  0 47  0  0
   -0.8672    6.0379    3.1787 O   0  0  0  0  0  0  0  0  0 48  0  0
   -1.4879    6.2709    0.4545 O   0  0  0  0  0  0  0  0  0 49  0  0
    0.0008    4.4995   -1.2760 O   0  0  0  0  0  0  0  0  0 50  0  0
    2.2380    4.8382    1.5938 O   0  0  0  0  0  0  0  0  0 51  0  0
    3.2520    5.5699   -0.9844 O   0  0  0  0  0  0  0  0  0 52  0  0
   -0.5617    5.3119   -2.2944 C   0  0  2  0  0  0  0  0  0 53  0  0
   -0.6303    6.3496   -1.9560 H   0  0  0  0  0  0  0  0  0 54  0  0
   -1.9520    4.7594   -2.6380 C   0  0  1  0  0  0  0  0  0 55  0  0
   -2.3914    5.4352   -3.3888 H   0  0  0  0  0  0  0  0  0 56  0  0
   -1.8201    3.3719   -3.2578 C   0  0  2  0  0  0  0  0  0 57  0  0
   -1.4559    2.6906   -2.4800 H   0  0  0  0  0  0  0  0  0 58  0  0
   -0.8253    3.3660   -4.4077 C   0  0  1  0  0  0  0  0  0 59  0  0
   -1.2531    3.8983   -5.2649 H   0  0  0  0  0  0  0  0  0 60  0  0
    0.4954    4.0389   -4.0085 C   0  0  1  0  0  0  0  0  0 61  0  0
    0.9913    3.4024   -3.2624 H   0  0  0  0  0  0  0  0  0 62  0  0
    1.4268    4.2424   -5.1964 C   0  0  2  0  0  0  0  0  0 63  0  0
    1.6613    3.2709   -5.6402 H   0  0  0  0  0  0  0  0  0 64  0  0
    2.3620    4.6949   -4.8326 H   0  0  0  0  0  0  0  0  0 65  0  0
    0.8174    5.0301   -6.2065 O   0  0  0  0  0  0  0  0  0 66  0  0
   -2.7938    4.6350   -1.5072 O   0  0  0  0  0  0  0  0  0 67  0  0
   -3.0732    2.9136   -3.7580 O   0  0  0  0  0  0  0  0  0 68  0  0
   -0.5609    2.0067   -4.7230 O   0  0  0  0  0  0  0  0  0 69  0  0
    0.2665    5.3351   -3.4364 O   0  0  0  0  0  0  0  0  0 70  0  0
   -0.5375    1.5921   -6.0951 C   0  0  2  0  0  0  0  0  0 71  0  0
   -0.6576    2.4585   -6.7525 H   0  0  0  0  0  0  0  0  0 72  0  0
   -1.6719    0.5790   -6.2831 C   0  0  1  0  0  0  0  0  0 73  0  0
   -1.6657    0.2547   -7.3294 H   0  0  0  0  0  0  0  0  0 74  0  0
   -1.4178   -0.6390   -5.3924 C   0  0  2  0  0  0  0  0  0 75  0  0
   -1.4758   -0.3118   -4.3432 H   0  0  0  0  0  0  0  0  0 76  0  0
   -0.0292   -1.2074   -5.6425 C   0  0  1  0  0  0  0  0  0 77  0  0
   -0.0114   -1.6858   -6.6262 H   0  0  0  0  0  0  0  0  0 78  0  0
    1.0376   -0.1033   -5.5665 C   0  0  1  0  0  0  0  0  0 79  0  0
    1.0759    0.2385   -4.5304 H   0  0  0  0  0  0  0  0  0 80  0  0
    2.4262   -0.5946   -5.9290 C   0  0  2  0  0  0  0  0  0 81  0  0
    2.7626   -1.2635   -5.1267 H   0  0  0  0  0  0  0  0  0 82  0  0
    3.0984    0.2747   -5.9566 H   0  0  0  0  0  0  0  0  0 83  0  0
   -2.9522    1.1300   -6.0360 O   0  0  0  0  0  0  0  0  0 84  0  0
   -2.3804   -1.6540   -5.6422 O   0  0  0  0  0  0  0  0  0 85  0  0
    0.2334   -2.1493   -4.6073 O   0  0  0  0  0  0  0  0  0 86  0  0
    0.7061    1.0224   -6.4034 O   0  0  0  0  0  0  0  0  0 87  0  0
    2.3730   -1.2647   -7.1865 O   0  0  0  0  0  0  0  0  0 88  0  0
    0.9162   -3.3608   -4.9524 C   0  0  2  0  0  0  0  0  0 89  0  0
    1.3499   -3.2694   -5.9520 H   0  0  0  0  0  0  0  0  0 90  0  0
   -0.1077   -4.5086   -4.9050 C   0  0  1  0  0  0  0  0  0 91  0  0
    0.3986   -5.4302   -5.2151 H   0  0  0  0  0  0  0  0  0 92  0  0
   -0.5897   -4.6969   -3.4633 C   0  0  2  0  0  0  0  0  0 93  0  0
   -1.1708   -3.8032   -3.1778 H   0  0  0  0  0  0  0  0  0 94  0  0
    0.6207   -4.7862   -2.5304 C   0  0  1  0  0  0  0  0  0 95  0  0
    1.1647   -5.7129   -2.7421 H   0  0  0  0  0  0  0  0  0 96  0  0
    1.5919   -3.6205   -2.6890 C   0  0  1  0  0  0  0  0  0 97  0  0
    1.0717   -2.6911   -2.4258 H   0  0  0  0  0  0  0  0  0 98  0  0
    2.8506   -3.7378   -1.8144 C   0  0  2  0  0  0  0  0  0 99  0  0
    2.6418   -3.2609   -0.8468 H   0  0  0  0  0  0  0  0  0100  0  0
    3.6360   -3.1528   -2.2997 H   0  0  0  0  0  0  0  0  0101  0  0
   -1.1380   -4.2834   -5.8394 O   0  0  0  0  0  0  0  0  0102  0  0
   -1.3682   -5.8703   -3.3768 O   0  0  0  0  0  0  0  0  0103  0  0
    0.1079   -4.8114   -1.1882 O   0  0  0  0  0  0  0  0  0104  0  0
    1.9941   -3.5475   -4.0682 O   0  0  0  0  0  0  0  0  0105  0  0
    3.3161   -5.0638   -1.6286 O   0  0  0  0  0  0  0  0  0106  0  0
    0.4337   -5.9085   -0.3822 C   0  0  2  0  0  0  0  0  0107  0  0
    0.8168   -6.7380   -0.9846 H   0  0  0  0  0  0  0  0  0108  0  0
   -0.8183   -6.3398    0.3850 C   0  0  1  0  0  0  0  0  0109  0  0
   -0.5542   -7.2223    0.9865 H   0  0  0  0  0  0  0  0  0110  0  0
   -1.2448   -5.2273    1.3296 C   0  0  2  0  0  0  0  0  0111  0  0
   -1.5248   -4.3536    0.7224 H   0  0  0  0  0  0  0  0  0112  0  0
   -0.0665   -4.8453    2.2173 C   0  0  1  0  0  0  0  0  0113  0  0
    0.2044   -5.6970    2.8512 H   0  0  0  0  0  0  0  0  0114  0  0
    1.1646   -4.4638    1.3968 C   0  0  1  0  0  0  0  0  0115  0  0
    0.9402   -3.5862    0.7803 H   0  0  0  0  0  0  0  0  0116  0  0
    2.3928   -4.1432    2.2594 C   0  0  2  0  0  0  0  0  0117  0  0
    2.3808   -3.0693    2.4702 H   0  0  0  0  0  0  0  0  0118  0  0
    3.2809   -4.3474    1.6505 H   0  0  0  0  0  0  0  0  0119  0  0
   -1.8400   -6.6617   -0.5473 O   0  0  0  0  0  0  0  0  0120  0  0
   -2.3480   -5.7068    2.0777 O   0  0  0  0  0  0  0  0  0121  0  0
   -0.4838   -3.7402    3.0247 O   0  0  0  0  0  0  0  0  0122  0  0
    1.4777   -5.5870    0.5340 O   0  0  0  0  0  0  0  0  0123  0  0
    2.4958   -4.9130    3.4485 O   0  0  0  0  0  0  0  0  0124  0  0
    3.0824    3.1412    4.3871 H   0  0  0  0  0  0  0  0  0125  0  0
    2.9672    2.4348    6.0215 H   0  0  0  0  0  0  0  0  0126  0  0
   -3.6903   -3.2733    4.4026 H   0  0  0  0  0  0  0  0  0127  0  0
   -3.0196   -0.3151    5.0707 H   0  0  0  0  0  0  0  0  0128  0  0
    2.6510   -1.3619    7.3538 H   0  0  0  0  0  0  0  0  0129  0  0
    2.9944    4.7056    6.2228 H   0  0  0  0  0  0  0  0  0130  0  0
   -3.4134    2.0398    4.3827 H   0  0  0  0  0  0  0  0  0131  0  0
   -1.8745    4.4358    3.4590 H   0  0  0  0  0  0  0  0  0132  0  0
   -0.5448    6.5974    3.8974 H   0  0  0  0  0  0  0  0  0133  0  0
   -2.0544    6.4848    1.2109 H   0  0  0  0  0  0  0  0  0134  0  0
    3.8296    5.5244   -1.7559 H   0  0  0  0  0  0  0  0  0135  0  0
    0.5636    5.8656   -5.7886 H   0  0  0  0  0  0  0  0  0136  0  0
   -2.5224    5.2886   -0.8377 H   0  0  0  0  0  0  0  0  0137  0  0
   -3.6857    2.8895   -3.0091 H   0  0  0  0  0  0  0  0  0138  0  0
   -2.9413    1.5837   -5.1705 H   0  0  0  0  0  0  0  0  0139  0  0
   -3.2413   -1.2122   -5.6873 H   0  0  0  0  0  0  0  0  0140  0  0
    3.2202   -1.7066   -7.3201 H   0  0  0  0  0  0  0  0  0141  0  0
   -1.6407   -3.4934   -5.5734 H   0  0  0  0  0  0  0  0  0142  0  0
   -1.6277   -5.9886   -2.4457 H   0  0  0  0  0  0  0  0  0143  0  0
    2.9031   -5.3865   -0.8109 H   0  0  0  0  0  0  0  0  0144  0  0
   -2.6669   -6.6853   -0.0438 H   0  0  0  0  0  0  0  0  0145  0  0
   -2.6322   -5.0076    2.6964 H   0  0  0  0  0  0  0  0  0146  0  0
    1.9961   -4.4419    4.1354 H   0  0  0  0  0  0  0  0  0147  0  0
    2.1680    0.6649   -0.1541 N   0  0  0  0  0  0  0  0  0148  0  0
    1.7404   -0.1399   -1.2968 C   0  0  2  0  0  0  0  0  0149  0  0
    2.7804    0.0937   -2.4008 C   0  0  0  0  0  0  0  0  0150  0  0
    3.6758   -0.6621   -2.6692 O   0  0  0  0  0  0  0  0  0151  0  0
    2.7053    1.3117   -3.0244 O   0  0  0  0  0  0  0  0  0152  0  0
    0.2867    0.1290   -1.7470 C   0  0  2  0  0  0  0  0  0153  0  0
   -0.7053    0.0302   -0.6124 C   0  0  0  0  0  0  0  0  0154  0  0
   -1.2507    1.1906   -0.0495 C   0  0  0  0  0  0  0  0  0155  0  0
   -1.0727   -1.2177   -0.0898 C   0  0  0  0  0  0  0  0  0156  0  0
   -2.1623    1.1106    1.0053 C   0  0  0  0  0  0  0  0  0157  0  0
   -1.9644   -1.2987    0.9793 C   0  0  0  0  0  0  0  0  0158  0  0
   -2.5121   -0.1352    1.5282 C   0  0  0  0  0  0  0  0  0159  0  0
    3.0433    1.0419    2.0789 C   0  0  2  0  0  0  0  0  0160  0  0
    2.3362    0.1248    1.0972 C   0  0  0  0  0  0  0  0  0161  0  0
    1.9494   -1.0014    1.3860 O   0  0  0  0  0  0  0  0  0162  0  0
    2.5932    1.5602   -0.3426 H   0  0  0  0  0  0  0  0  0163  0  0
    1.8289   -1.1801   -0.9881 H   0  0  0  0  0  0  0  0  0164  0  0
    1.8182    1.6895   -2.9198 H   0  0  0  0  0  0  0  0  0165  0  0
    0.0536   -0.5921   -2.5388 H   0  0  0  0  0  0  0  0  0166  0  0
    0.1993    1.1239   -2.2011 H   0  0  0  0  0  0  0  0  0167  0  0
   -0.9702    2.1666   -0.4378 H   0  0  0  0  0  0  0  0  0168  0  0
   -0.6590   -2.1287   -0.5163 H   0  0  0  0  0  0  0  0  0169  0  0
   -2.5807    2.0217    1.4209 H   0  0  0  0  0  0  0  0  0170  0  0
   -2.2210   -2.2670    1.3963 H   0  0  0  0  0  0  0  0  0171  0  0
   -3.1983   -0.2017    2.3681 H   0  0  0  0  0  0  0  0  0172  0  0
    4.0451    1.2927    1.7130 H   0  0  0  0  0  0  0  0  0173  0  0
    3.1354    0.5214    3.0320 H   0  0  0  0  0  0  0  0  0174  0  0
    2.4872    1.9733    2.2190 H   0  0  0  0  0  0  0  0  0175  0  0
   -0.2188    1.4586    1.6441 O   0  0  0  0  0  0  0  0  0176  0  0
   -0.8546    1.0026    2.4314 H   0  0  0  0  0  0  0  0  0177  0  0
    0.2014    2.4162    2.0164 H   0  0  0  0  0  0  0  0  0178  0  0
   -0.6758   -1.9136   -2.7495 O   0  0  0  0  0  0  0  0  0179  0  0
   -1.0475   -1.1735   -2.0105 H   0  0  0  0  0  0  0  0  0180  0  0
    0.4342   -1.9138   -2.7467 H   0  0  0  0  0  0  0  0  0181  0  0
   -3.6743   -2.2853    1.1796 O   0  0  0  0  0  0  0  0  0182  0  0
   -4.0460   -1.5451    1.9186 H   0  0  0  0  0  0  0  0  0183  0  0
   -2.5643   -2.2855    1.1824 H   0  0  0  0  0  0  0  0  0184  0  0
   -2.0677    1.0249   -2.7750 O   0  0  0  0  0  0  0  0  0185  0  0
   -3.0637    1.4526   -3.0142 H   0  0  0  0  0  0  0  0  0186  0  0
   -2.0851   -0.0717   -2.9458 H   0  0  0  0  0  0  0  0  0187  0  0
  1  2  1  6
  1  3  1  0
  1 17  1  0
  1122  1  0
  3  4  1  1
  3  5  1  0
  3 14  1  0
  5  6  1  6
  5  7  1  0
  5 15  1  0
  7  8  1  1
  7  9  1  0
  7 16  1  0
  9 10  1  6
  9 11  1  0
  9 17  1  0
 11 12  1  1
 11 13  1  0
 11 18  1  0
 14127  1  0
 15128  1  0
 16 19  1  0
 18129  1  0
 19 20  1  1
 19 21  1  0
 19 34  1  0
 21 22  1  1
 21 23  1  0
 21 31  1  0
 23 24  1  6
 23 25  1  0
 23 32  1  0
 25 26  1  1
 25 27  1  0
 25 33  1  0
 27 28  1  6
 27 29  1  0
 27 34  1  0
 29 30  1  0
 29125  1  6
 29126  1  0
 30130  1  0
 31131  1  0
 32132  1  0
 33 35  1  0
 35 36  1  1
 35 37  1  0
 35 51  1  0
 37 38  1  6
 37 39  1  0
 37 48  1  0
 39 40  1  1
 39 41  1  0
 39 49  1  0
 41 42  1  6
 41 43  1  0
 41 50  1  0
 43 44  1  1
 43 45  1  0
 43 51  1  0
 45 46  1  6
 45 47  1  0
 45 52  1  0
 48133  1  0
 49134  1  0
 50 53  1  0
 52135  1  0
 53 54  1  1
 53 55  1  0
 53 70  1  0
 55 56  1  6
 55 57  1  0
 55 67  1  0
 57 58  1  1
 57 59  1  0
 57 68  1  0
 59 60  1  6
 59 61  1  0
 59 69  1  0
 61 62  1  1
 61 63  1  0
 61 70  1  0
 63 64  1  6
 63 65  1  0
 63 66  1  0
 66136  1  0
 67137  1  0
 68138  1  0
 69 71  1  0
 71 72  1  6
 71 73  1  0
 71 87  1  0
 73 74  1  6
 73 75  1  0
 73 84  1  0
 75 76  1  1
 75 77  1  0
 75 85  1  0
 77 78  1  6
 77 79  1  0
 77 86  1  0
 79 80  1  1
 79 81  1  0
 79 87  1  0
 81 82  1  1
 81 83  1  0
 81 88  1  0
 84139  1  0
 85140  1  0
 86 89  1  0
 88141  1  0
 89 90  1  6
 89 91  1  0
 89105  1  0
 91 92  1  6
 91 93  1  0
 91102  1  0
 93 94  1  1
 93 95  1  0
 93103  1  0
 95 96  1  6
 95 97  1  0
 95104  1  0
 97 98  1  1
 97 99  1  0
 97105  1  0
 99100  1  1
 99101  1  0
 99106  1  0
102142  1  0
103143  1  0
104107  1  0
106144  1  0
107108  1  6
107109  1  0
107123  1  0
109110  1  1
109111  1  0
109120  1  0
111112  1  6
111113  1  0
111121  1  0
113114  1  1
113115  1  0
113122  1  0
115116  1  6
115117  1  0
115123  1  0
117118  1  1
117119  1  0
117124  1  0
120145  1  0
121146  1  0
124147  1  0
148149  1  0
148161  1  0
148163  1  0
149150  1  0
149153  1  0
149164  1  1
150151  2  0
150152  1  0
152165  1  0
153154  1  0
153166  1  6
153167  1  0
154155  4  0
154156  4  0
155157  4  0
155168  1  0
156158  4  0
156169  1  0
157159  4  0
157170  1  0
158159  4  0
158171  1  0
159172  1  0
160161  1  0
160173  1  6
160174  1  0
160175  1  0
161162  2  0
176177  1  0
176178  1  0
179180  1  0
179181  1  0
182183  1  0
182184  1  0
185186  1  0
185187  1  0
M  END
