
     RDKit          3D

175182  0  0  0  0  0  0  0  0999 V2000
   -0.3297   -3.9189    4.4922 C   0  0  2  0  0  0  0  0  0  1  0  0
   -0.2945   -4.9841    4.7411 H   0  0  0  0  0  0  0  0  0  2  0  0
   -1.6091   -3.2811    5.0310 C   0  0  1  0  0  0  0  0  0  3  0  0
   -1.6611   -3.4851    6.1102 H   0  0  0  0  0  0  0  0  0  4  0  0
   -1.5639   -1.7775    4.8160 C   0  0  2  0  0  0  0  0  0  5  0  0
   -1.5100   -1.5857    3.7381 H   0  0  0  0  0  0  0  0  0  6  0  0
   -0.2984   -1.1911    5.4353 C   0  0  1  0  0  0  0  0  0  7  0  0
   -0.3289   -1.2636    6.5274 H   0  0  0  0  0  0  0  0  0  8  0  0
    0.9421   -1.9229    4.9008 C   0  0  1  0  0  0  0  0  0  9  0  0
    1.0283   -1.7288    3.8235 H   0  0  0  0  0  0  0  0  0 10  0  0
    2.2287   -1.4809    5.5708 C   0  0  2  0  0  0  0  0  0 11  0  0
    2.4415   -0.4524    5.2424 H   0  0  0  0  0  0  0  0  0 12  0  0
    3.0390   -2.1327    5.2111 H   0  0  0  0  0  0  0  0  0 13  0  0
   -2.7281   -3.8558    4.3642 O   0  0  0  0  0  0  0  0  0 14  0  0
   -2.7570   -1.2522    5.3703 O   0  0  0  0  0  0  0  0  0 15  0  0
   -0.2104    0.1755    5.0178 O   0  0  0  0  0  0  0  0  0 16  0  0
    0.8021   -3.3421    5.1332 O   0  0  0  0  0  0  0  0  0 17  0  0
    2.0659   -1.5567    6.9791 O   0  0  0  0  0  0  0  0  0 18  0  0
   -0.4303    1.2120    5.9347 C   0  0  2  0  0  0  0  0  0 19  0  0
   -0.7557    0.8297    6.9071 H   0  0  0  0  0  0  0  0  0 20  0  0
   -1.4584    2.1776    5.3298 C   0  0  1  0  0  0  0  0  0 21  0  0
   -1.5740    3.0202    6.0282 H   0  0  0  0  0  0  0  0  0 22  0  0
   -0.9272    2.6866    3.9901 C   0  0  2  0  0  0  0  0  0 23  0  0
   -0.7969    1.8267    3.3279 H   0  0  0  0  0  0  0  0  0 24  0  0
    0.4241    3.3531    4.2014 C   0  0  1  0  0  0  0  0  0 25  0  0
    0.2986    4.2714    4.7820 H   0  0  0  0  0  0  0  0  0 26  0  0
    1.3741    2.4166    4.9698 C   0  0  1  0  0  0  0  0  0 27  0  0
    1.5970    1.5628    4.3220 H   0  0  0  0  0  0  0  0  0 28  0  0
    2.6848    3.0965    5.3274 C   0  0  2  0  0  0  0  0  0 29  0  0
    2.4196    4.3955    5.8591 O   0  0  0  0  0  0  0  0  0 30  0  0
   -2.7097    1.5266    5.1458 O   0  0  0  0  0  0  0  0  0 31  0  0
   -1.9005    3.5278    3.3730 O   0  0  0  0  0  0  0  0  0 32  0  0
    0.9930    3.6332    2.9186 O   0  0  0  0  0  0  0  0  0 33  0  0
    0.7623    1.9448    6.1763 O   0  0  0  0  0  0  0  0  0 34  0  0
    1.4875    4.9371    2.6777 C   0  0  2  0  0  0  0  0  0 35  0  0
    2.0265    5.3105    3.5577 H   0  0  0  0  0  0  0  0  0 36  0  0
    0.3584    5.9016    2.2599 C   0  0  1  0  0  0  0  0  0 37  0  0
    0.8103    6.8772    2.0379 H   0  0  0  0  0  0  0  0  0 38  0  0
   -0.3243    5.3689    1.0068 C   0  0  2  0  0  0  0  0  0 39  0  0
   -0.7818    4.4001    1.2382 H   0  0  0  0  0  0  0  0  0 40  0  0
    0.7178    5.1908   -0.0938 C   0  0  1  0  0  0  0  0  0 41  0  0
    1.1099    6.1684   -0.3955 H   0  0  0  0  0  0  0  0  0 42  0  0
    1.8849    4.3289    0.4053 C   0  0  1  0  0  0  0  0  0 43  0  0
    1.5110    3.3106    0.5731 H   0  0  0  0  0  0  0  0  0 44  0  0
    3.0273    4.2697   -0.5954 C   0  0  2  0  0  0  0  0  0 45  0  0
    2.6857    3.6881   -1.4632 H   0  0  0  0  0  0  0  0  0 46  0  0
    3.8625    3.7268   -0.1234 H   0  0  0  0  0  0  0  0  0 47  0  0
   -0.6664    6.0579    3.2567 O   0  0  0  0  0  0  0  0  0 48  0  0
   -1.3217    6.2876    0.5404 O   0  0  0  0  0  0  0  0  0 49  0  0
    0.1456    4.5148   -1.2069 O   0  0  0  0  0  0  0  0  0 50  0  0
    2.4189    4.8578    1.6339 O   0  0  0  0  0  0  0  0  0 51  0  0
    3.3999    5.5870   -0.9578 O   0  0  0  0  0  0  0  0  0 52  0  0
   -0.4301    5.3259   -2.2190 C   0  0  2  0  0  0  0  0  0 53  0  0
   -0.4948    6.3640   -1.8809 H   0  0  0  0  0  0  0  0  0 54  0  0
   -1.8244    4.7725   -2.5443 C   0  0  1  0  0  0  0  0  0 55  0  0
   -2.2736    5.4472   -3.2903 H   0  0  0  0  0  0  0  0  0 56  0  0
   -1.6998    3.3843   -3.1642 C   0  0  2  0  0  0  0  0  0 57  0  0
   -1.3255    2.7040   -2.3904 H   0  0  0  0  0  0  0  0  0 58  0  0
   -0.7197    3.3775   -4.3266 C   0  0  1  0  0  0  0  0  0 59  0  0
   -1.1585    3.9087   -5.1789 H   0  0  0  0  0  0  0  0  0 60  0  0
    0.6057    4.0514   -3.9450 C   0  0  1  0  0  0  0  0  0 61  0  0
    1.1113    3.4160   -3.2045 H   0  0  0  0  0  0  0  0  0 62  0  0
    1.5219    4.2540   -5.1448 C   0  0  2  0  0  0  0  0  0 63  0  0
    1.7512    3.2821   -5.5905 H   0  0  0  0  0  0  0  0  0 64  0  0
    2.4615    4.7073   -4.7934 H   0  0  0  0  0  0  0  0  0 65  0  0
    0.8993    5.0403   -6.1479 O   0  0  0  0  0  0  0  0  0 66  0  0
   -2.6518    4.6489   -1.4028 O   0  0  0  0  0  0  0  0  0 67  0  0
   -2.9589    2.9249   -3.6479 O   0  0  0  0  0  0  0  0  0 68  0  0
   -0.4587    2.0180   -4.6438 O   0  0  0  0  0  0  0  0  0 69  0  0
    0.3836    5.3482   -3.3714 O   0  0  0  0  0  0  0  0  0 70  0  0
   -0.4525    1.6019   -6.0155 C   0  0  2  0  0  0  0  0  0 71  0  0
   -0.5813    2.4675   -6.6724 H   0  0  0  0  0  0  0  0  0 72  0  0
   -1.5888    0.5881   -6.1880 C   0  0  1  0  0  0  0  0  0 73  0  0
   -1.5957    0.2626   -7.2340 H   0  0  0  0  0  0  0  0  0 74  0  0
   -1.3229   -0.6288   -5.2993 C   0  0  2  0  0  0  0  0  0 75  0  0
   -1.3677   -0.3004   -4.2497 H   0  0  0  0  0  0  0  0  0 76  0  0
    0.0627   -1.1969   -5.5663 C   0  0  1  0  0  0  0  0  0 77  0  0
    0.0682   -1.6765   -6.5496 H   0  0  0  0  0  0  0  0  0 78  0  0
    1.1299   -0.0923   -5.5051 C   0  0  1  0  0  0  0  0  0 79  0  0
    1.1812    0.2507   -4.4699 H   0  0  0  0  0  0  0  0  0 80  0  0
    2.5140   -0.5834   -5.8846 C   0  0  2  0  0  0  0  0  0 81  0  0
    2.8609   -1.2512   -5.0859 H   0  0  0  0  0  0  0  0  0 82  0  0
    3.1854    0.2861   -5.9218 H   0  0  0  0  0  0  0  0  0 83  0  0
   -2.8661    1.1388   -5.9253 O   0  0  0  0  0  0  0  0  0 84  0  0
   -2.2881   -1.6445   -5.5357 O   0  0  0  0  0  0  0  0  0 85  0  0
    0.3388   -2.1376   -4.5335 O   0  0  0  0  0  0  0  0  0 86  0  0
    0.7873    1.0324   -6.3389 O   0  0  0  0  0  0  0  0  0 87  0  0
    2.4452   -1.2550   -7.1406 O   0  0  0  0  0  0  0  0  0 88  0  0
    1.0177   -3.3491   -4.8859 C   0  0  2  0  0  0  0  0  0 89  0  0
    1.4387   -3.2587   -5.8910 H   0  0  0  0  0  0  0  0  0 90  0  0
   -0.0050   -4.4973   -4.8242 C   0  0  1  0  0  0  0  0  0 91  0  0
    0.4977   -5.4191   -5.1396 H   0  0  0  0  0  0  0  0  0 92  0  0
   -0.4686   -4.6842   -3.3763 C   0  0  2  0  0  0  0  0  0 93  0  0
   -1.0464   -3.7904   -3.0844 H   0  0  0  0  0  0  0  0  0 94  0  0
    0.7536   -4.7719   -2.4588 C   0  0  1  0  0  0  0  0  0 95  0  0
    1.2952   -5.6986   -2.6763 H   0  0  0  0  0  0  0  0  0 96  0  0
    1.7222   -3.6060   -2.6309 C   0  0  1  0  0  0  0  0  0 97  0  0
    1.2050   -2.6766   -2.3621 H   0  0  0  0  0  0  0  0  0 98  0  0
    2.9920   -3.7219   -1.7722 C   0  0  2  0  0  0  0  0  0 99  0  0
    2.7952   -3.2440   -0.8026 H   0  0  0  0  0  0  0  0  0100  0  0
    3.7708   -3.1371   -2.2681 H   0  0  0  0  0  0  0  0  0101  0  0
   -1.0472   -4.2736   -5.7457 O   0  0  0  0  0  0  0  0  0102  0  0
   -1.2455   -5.8579   -3.2786 O   0  0  0  0  0  0  0  0  0103  0  0
    0.2579   -4.7958   -1.1101 O   0  0  0  0  0  0  0  0  0104  0  0
    2.1068   -3.5344   -4.0152 O   0  0  0  0  0  0  0  0  0105  0  0
    3.4603   -5.0474   -1.5909 O   0  0  0  0  0  0  0  0  0106  0  0
    0.5943   -5.8919   -0.3071 C   0  0  2  0  0  0  0  0  0107  0  0
    0.9702   -6.7219   -0.9133 H   0  0  0  0  0  0  0  0  0108  0  0
   -0.6476   -6.3228    0.4765 C   0  0  1  0  0  0  0  0  0109  0  0
   -0.3756   -7.2046    1.0755 H   0  0  0  0  0  0  0  0  0110  0  0
   -1.0626   -5.2095    1.4251 C   0  0  2  0  0  0  0  0  0111  0  0
   -1.3507   -4.3366    0.8206 H   0  0  0  0  0  0  0  0  0112  0  0
    0.1267   -4.8260    2.2974 C   0  0  1  0  0  0  0  0  0113  0  0
    0.4060   -5.6769    2.9287 H   0  0  0  0  0  0  0  0  0114  0  0
    1.3471   -4.4449    1.4609 C   0  0  1  0  0  0  0  0  0115  0  0
    1.1145   -3.5681    0.8463 H   0  0  0  0  0  0  0  0  0116  0  0
    2.5861   -4.1229    2.3075 C   0  0  2  0  0  0  0  0  0117  0  0
    2.5763   -3.0487    2.5172 H   0  0  0  0  0  0  0  0  0118  0  0
    3.4665   -4.3273    1.6876 H   0  0  0  0  0  0  0  0  0119  0  0
   -1.6809   -6.6463   -0.4425 O   0  0  0  0  0  0  0  0  0120  0  0
   -2.1560   -5.6887    2.1877 O   0  0  0  0  0  0  0  0  0121  0  0
   -0.2808   -3.7202    3.1088 O   0  0  0  0  0  0  0  0  0122  0  0
    1.6498   -5.5690    0.5955 O   0  0  0  0  0  0  0  0  0123  0  0
    2.7044   -4.8913    3.4961 O   0  0  0  0  0  0  0  0  0124  0  0
    3.2994    3.1642    4.4182 H   0  0  0  0  0  0  0  0  0125  0  0
    3.2053    2.4596    6.0547 H   0  0  0  0  0  0  0  0  0126  0  0
   -3.4697   -3.2531    4.5268 H   0  0  0  0  0  0  0  0  0127  0  0
   -2.7919   -0.2938    5.1830 H   0  0  0  0  0  0  0  0  0128  0  0
    2.9076   -1.3358    7.3951 H   0  0  0  0  0  0  0  0  0129  0  0
    3.2341    4.7307    6.2531 H   0  0  0  0  0  0  0  0  0130  0  0
   -3.1954    2.0601    4.4974 H   0  0  0  0  0  0  0  0  0131  0  0
   -1.6693    4.4557    3.5516 H   0  0  0  0  0  0  0  0  0132  0  0
   -0.3352    6.6184    3.9706 H   0  0  0  0  0  0  0  0  0133  0  0
   -1.8786    6.5022    1.3036 H   0  0  0  0  0  0  0  0  0134  0  0
    3.9676    5.5408   -1.7365 H   0  0  0  0  0  0  0  0  0135  0  0
    0.6505    5.8762   -5.7278 H   0  0  0  0  0  0  0  0  0136  0  0
   -2.3721    5.3034   -0.7375 H   0  0  0  0  0  0  0  0  0137  0  0
   -3.5618    2.9015   -2.8913 H   0  0  0  0  0  0  0  0  0138  0  0
   -2.8444    1.5935   -5.0605 H   0  0  0  0  0  0  0  0  0139  0  0
   -3.1497   -1.2031   -5.5703 H   0  0  0  0  0  0  0  0  0140  0  0
    3.2907   -1.6967   -7.2844 H   0  0  0  0  0  0  0  0  0141  0  0
   -1.5468   -3.4836   -5.4742 H   0  0  0  0  0  0  0  0  0142  0  0
   -1.4931   -5.9752   -2.3442 H   0  0  0  0  0  0  0  0  0143  0  0
    3.0579   -5.3694   -0.7677 H   0  0  0  0  0  0  0  0  0144  0  0
   -2.5014   -6.6697    0.0715 H   0  0  0  0  0  0  0  0  0145  0  0
   -2.4326   -4.9889    2.8091 H   0  0  0  0  0  0  0  0  0146  0  0
    2.2133   -4.4196    4.1888 H   0  0  0  0  0  0  0  0  0147  0  0
    0.3375    0.5007   -0.1590 N   0  0  0  0  0  0  0  0  0148  0  0
   -0.1042   -0.3055   -1.2953 C   0  0  2  0  0  0  0  0  0149  0  0
    0.9215   -0.0727   -2.4127 C   0  0  0  0  0  0  0  0  0150  0  0
    1.8138   -0.8284   -2.6915 O   0  0  0  0  0  0  0  0  0151  0  0
    0.8380    1.1445   -3.0366 O   0  0  0  0  0  0  0  0  0152  0  0
   -1.5636   -0.0378   -1.7273 C   0  0  2  0  0  0  0  0  0153  0  0
   -2.5411   -0.1357   -0.5801 C   0  0  0  0  0  0  0  0  0154  0  0
   -3.0798    1.0251   -0.0116 C   0  0  0  0  0  0  0  0  0155  0  0
   -2.9013   -1.3832   -0.0515 C   0  0  0  0  0  0  0  0  0156  0  0
   -3.9779    0.9460    1.0548 C   0  0  0  0  0  0  0  0  0157  0  0
   -3.7793   -1.4633    1.0289 C   0  0  0  0  0  0  0  0  0158  0  0
   -4.3205   -0.2994    1.5835 C   0  0  0  0  0  0  0  0  0159  0  0
    1.2409    0.8806    2.0623 C   0  0  2  0  0  0  0  0  0160  0  0
    0.5218   -0.0379    1.0906 C   0  0  0  0  0  0  0  0  0161  0  0
    0.1391   -1.1640    1.3856 O   0  0  0  0  0  0  0  0  0162  0  0
    0.7599    1.3960   -0.3539 H   0  0  0  0  0  0  0  0  0163  0  0
   -0.0113   -1.3453   -0.9866 H   0  0  0  0  0  0  0  0  0164  0  0
   -0.0478    1.5220   -2.9212 H   0  0  0  0  0  0  0  0  0165  0  0
   -1.8065   -0.7599   -2.5152 H   0  0  0  0  0  0  0  0  0166  0  0
   -1.6572    0.9565   -2.1814 H   0  0  0  0  0  0  0  0  0167  0  0
   -2.8047    2.0008   -0.4045 H   0  0  0  0  0  0  0  0  0168  0  0
   -2.4926   -2.2944   -0.4821 H   0  0  0  0  0  0  0  0  0169  0  0
   -4.3914    1.8573    1.4746 H   0  0  0  0  0  0  0  0  0170  0  0
   -4.0303   -2.4313    1.4502 H   0  0  0  0  0  0  0  0  0171  0  0
   -4.9960   -0.3652    2.4320 H   0  0  0  0  0  0  0  0  0172  0  0
    2.2378    1.1314    1.6834 H   0  0  0  0  0  0  0  0  0173  0  0
    1.3453    0.3612    3.0147 H   0  0  0  0  0  0  0  0  0174  0  0
    0.6862    1.8119    2.2084 H   0  0  0  0  0  0  0  0  0175  0  0
  1  2  1  6
  1  3  1  0
  1 17  1  0
  1122  1  0
  3  4  1  1
  3  5  1  0
  3 14  1  0
  5  6  1  6
  5  7  1  0
  5 15  1  0
  7  8  1  1
  7  9  1  0
  7 16  1  0
  9 10  1  6
  9 11  1  0
  9 17  1  0
 11 12  1  1
 11 13  1  0
 11 18  1  0
 14127  1  0
 15128  1  0
 16 19  1  0
 18129  1  0
 19 20  1  1
 19 21  1  0
 19 34  1  0
 21 22  1  1
 21 23  1  0
 21 31  1  0
 23 24  1  6
 23 25  1  0
 23 32  1  0
 25 26  1  1
 25 27  1  0
 25 33  1  0
 27 28  1  6
 27 29  1  0
 27 34  1  0
 29 30  1  0
 29125  1  6
 29126  1  0
 30130  1  0
 31131  1  0
 32132  1  0
 33 35  1  0
 35 36  1  1
 35 37  1  0
 35 51  1  0
 37 38  1  6
 37 39  1  0
 37 48  1  0
 39 40  1  1
 39 41  1  0
 39 49  1  0
 41 42  1  6
 41 43  1  0
 41 50  1  0
 43 44  1  1
 43 45  1  0
 43 51  1  0
 45 46  1  6
 45 47  1  0
 45 52  1  0
 48133  1  0
 49134  1  0
 50 53  1  0
 52135  1  0
 53 54  1  1
 53 55  1  0
 53 70  1  0
 55 56  1  6
 55 57  1  0
 55 67  1  0
 57 58  1  1
 57 59  1  0
 57 68  1  0
 59 60  1  6
 59 61  1  0
 59 69  1  0
 61 62  1  1
 61 63  1  0
 61 70  1  0
 63 64  1  6
 63 65  1  0
 63 66  1  0
 66136  1  0
 67137  1  0
 68138  1  0
 69 71  1  0
 71 72  1  6
 71 73  1  0
 71 87  1  0
 73 74  1  6
 73 75  1  0
 73 84  1  0
 75 76  1  1
 75 77  1  0
 75 85  1  0
 77 78  1  6
 77 79  1  0
 77 86  1  0
 79 80  1  1
 79 81  1  0
 79 87  1  0
 81 82  1  1
 81 83  1  0
 81 88  1  0
 84139  1  0
 85140  1  0
 86 89  1  0
 88141  1  0
 89 90  1  6
 89 91  1  0
 89105  1  0
 91 92  1  6
 91 93  1  0
 91102  1  0
 93 94  1  1
 93 95  1  0
 93103  1  0
 95 96  1  6
 95 97  1  0
 95104  1  0
 97 98  1  1
 97 99  1  0
 97105  1  0
 99100  1  1
 99101  1  0
 99106  1  0
102142  1  0
103143  1  0
104107  1  0
106144  1  0
107108  1  6
107109  1  0
107123  1  0
109110  1  1
109111  1  0
109120  1  0
111112  1  6
111113  1  0
111121  1  0
113114  1  1
113115  1  0
113122  1  0
115116  1  6
115117  1  0
115123  1  0
117118  1  1
117119  1  0
117124  1  0
120145  1  0
121146  1  0
124147  1  0
148149  1  0
148161  1  0
148163  1  0
149150  1  0
149153  1  0
149164  1  1
150151  2  0
150152  1  0
152165  1  0
153154  1  0
153166  1  6
153167  1  0
154155  4  0
154156  4  0
155157  4  0
155168  1  0
156158  4  0
156169  1  0
157159  4  0
157170  1  0
158159  4  0
158171  1  0
159172  1  0
160161  1  0
160173  1  6
160174  1  0
160175  1  0
161162  2  0
M  END
