
     RDKit          3D

175182  0  0  0  0  0  0  0  0999 V2000
   -0.6958   -3.9698    4.4023 C   0  0  2  0  0  0  0  0  0  1  0  0
   -0.6645   -5.0359    4.6479 H   0  0  0  0  0  0  0  0  0  2  0  0
   -1.9890   -3.3365    4.9125 C   0  0  1  0  0  0  0  0  0  3  0  0
   -2.0665   -3.5447    5.9894 H   0  0  0  0  0  0  0  0  0  4  0  0
   -1.9415   -1.8320    4.7044 C   0  0  2  0  0  0  0  0  0  5  0  0
   -1.8620   -1.6359    3.6288 H   0  0  0  0  0  0  0  0  0  6  0  0
   -0.6924   -1.2456    5.3562 C   0  0  1  0  0  0  0  0  0  7  0  0
   -0.7490   -1.3224    6.4470 H   0  0  0  0  0  0  0  0  0  8  0  0
    0.5620   -1.9731    4.8490 C   0  0  1  0  0  0  0  0  0  9  0  0
    0.6737   -1.7746    3.7748 H   0  0  0  0  0  0  0  0  0 10  0  0
    1.8312   -1.5313    5.5514 C   0  0  2  0  0  0  0  0  0 11  0  0
    2.0498   -0.5012    5.2322 H   0  0  0  0  0  0  0  0  0 12  0  0
    2.6512   -2.1803    5.2089 H   0  0  0  0  0  0  0  0  0 13  0  0
   -3.0905   -3.9107    4.2167 O   0  0  0  0  0  0  0  0  0 14  0  0
   -3.1487   -1.3110    5.2318 O   0  0  0  0  0  0  0  0  0 15  0  0
   -0.5971    0.1227    4.9462 O   0  0  0  0  0  0  0  0  0 16  0  0
    0.4192   -3.3934    5.0726 O   0  0  0  0  0  0  0  0  0 17  0  0
    1.6347   -1.6128    6.9551 O   0  0  0  0  0  0  0  0  0 18  0  0
   -0.8410    1.1553    5.8614 C   0  0  2  0  0  0  0  0  0 19  0  0
   -1.1889    0.7686    6.8243 H   0  0  0  0  0  0  0  0  0 20  0  0
   -1.8560    2.1214    5.2357 C   0  0  1  0  0  0  0  0  0 21  0  0
   -1.9900    2.9609    5.9343 H   0  0  0  0  0  0  0  0  0 22  0  0
   -1.2938    2.6364    3.9111 C   0  0  2  0  0  0  0  0  0 23  0  0
   -1.1458    1.7794    3.2490 H   0  0  0  0  0  0  0  0  0 24  0  0
    0.0508    3.3046    4.1575 C   0  0  1  0  0  0  0  0  0 25  0  0
   -0.0904    4.2204    4.7384 H   0  0  0  0  0  0  0  0  0 26  0  0
    0.9838    2.3669    4.9449 C   0  0  1  0  0  0  0  0  0 27  0  0
    1.2239    1.5160    4.2994 H   0  0  0  0  0  0  0  0  0 28  0  0
    2.2842    3.0478    5.3366 C   0  0  2  0  0  0  0  0  0 29  0  0
    2.0038    4.3443    5.8667 O   0  0  0  0  0  0  0  0  0 30  0  0
   -3.1013    1.4688    5.0191 O   0  0  0  0  0  0  0  0  0 31  0  0
   -2.2535    3.4782    3.2740 O   0  0  0  0  0  0  0  0  0 32  0  0
    0.6498    3.5907    2.8898 O   0  0  0  0  0  0  0  0  0 33  0  0
    0.3441    1.8893    6.1345 O   0  0  0  0  0  0  0  0  0 34  0  0
    1.1476    4.8964    2.6658 C   0  0  2  0  0  0  0  0  0 35  0  0
    1.6645    5.2674    3.5600 H   0  0  0  0  0  0  0  0  0 36  0  0
    0.0270    5.8605    2.2246 C   0  0  1  0  0  0  0  0  0 37  0  0
    0.4822    6.8377    2.0173 H   0  0  0  0  0  0  0  0  0 38  0  0
   -0.6244    5.3313    0.9534 C   0  0  2  0  0  0  0  0  0 39  0  0
   -1.0854    4.3609    1.1701 H   0  0  0  0  0  0  0  0  0 40  0  0
    0.4443    5.1594   -0.1224 C   0  0  1  0  0  0  0  0  0 41  0  0
    0.8417    6.1389   -0.4109 H   0  0  0  0  0  0  0  0  0 42  0  0
    1.6007    4.2977    0.4014 C   0  0  1  0  0  0  0  0  0 43  0  0
    1.2249    3.2781    0.5562 H   0  0  0  0  0  0  0  0  0 44  0  0
    2.7670    4.2444   -0.5718 C   0  0  2  0  0  0  0  0  0 45  0  0
    2.4475    3.6657   -1.4498 H   0  0  0  0  0  0  0  0  0 46  0  0
    3.5916    3.7013   -0.0818 H   0  0  0  0  0  0  0  0  0 47  0  0
   -1.0219    6.0110    3.1971 O   0  0  0  0  0  0  0  0  0 48  0  0
   -1.6120    6.2500    0.4666 O   0  0  0  0  0  0  0  0  0 49  0  0
   -0.0996    4.4867   -1.2515 O   0  0  0  0  0  0  0  0  0 50  0  0
    2.1039    4.8228    1.6444 O   0  0  0  0  0  0  0  0  0 51  0  0
    3.1456    5.5639   -0.9201 O   0  0  0  0  0  0  0  0  0 52  0  0
   -0.6523    5.3006   -2.2741 C   0  0  2  0  0  0  0  0  0 53  0  0
   -0.7272    6.3372   -1.9337 H   0  0  0  0  0  0  0  0  0 54  0  0
   -2.0374    4.7459   -2.6350 C   0  0  1  0  0  0  0  0  0 55  0  0
   -2.4697    5.4226   -3.3890 H   0  0  0  0  0  0  0  0  0 56  0  0
   -1.8952    3.3603   -3.2570 C   0  0  2  0  0  0  0  0  0 57  0  0
   -1.5383    2.6777   -2.4770 H   0  0  0  0  0  0  0  0  0 58  0  0
   -0.8873    3.3598   -4.3955 C   0  0  1  0  0  0  0  0  0 59  0  0
   -1.3065    3.8935   -5.2561 H   0  0  0  0  0  0  0  0  0 60  0  0
    0.4272    4.0347   -3.9795 C   0  0  1  0  0  0  0  0  0 61  0  0
    0.9160    3.3973   -3.2295 H   0  0  0  0  0  0  0  0  0 62  0  0
    1.3716    4.2436   -5.1561 C   0  0  2  0  0  0  0  0  0 63  0  0
    1.6134    3.2738   -5.5998 H   0  0  0  0  0  0  0  0  0 64  0  0
    2.3015    4.6973   -4.7805 H   0  0  0  0  0  0  0  0  0 65  0  0
    0.7719    5.0326   -6.1709 O   0  0  0  0  0  0  0  0  0 66  0  0
   -2.8917    4.6164   -1.5142 O   0  0  0  0  0  0  0  0  0 67  0  0
   -3.1414    2.9005   -3.7726 O   0  0  0  0  0  0  0  0  0 68  0  0
   -0.6162    2.0020   -4.7114 O   0  0  0  0  0  0  0  0  0 69  0  0
    0.1888    5.3289   -3.4065 O   0  0  0  0  0  0  0  0  0 70  0  0
   -0.5762    1.5912   -6.0842 C   0  0  2  0  0  0  0  0  0 71  0  0
   -0.6907    2.4591   -6.7407 H   0  0  0  0  0  0  0  0  0 72  0  0
   -1.7060    0.5760   -6.2879 C   0  0  1  0  0  0  0  0  0 73  0  0
   -1.6871    0.2546   -7.3349 H   0  0  0  0  0  0  0  0  0 74  0  0
   -1.4592   -0.6438   -5.3977 C   0  0  2  0  0  0  0  0  0 75  0  0
   -1.5299   -0.3196   -4.3483 H   0  0  0  0  0  0  0  0  0 76  0  0
   -0.0665   -1.2083   -5.6334 C   0  0  1  0  0  0  0  0  0 77  0  0
   -0.0364   -1.6841   -6.6181 H   0  0  0  0  0  0  0  0  0 78  0  0
    0.9968   -0.1020   -5.5423 C   0  0  1  0  0  0  0  0  0 79  0  0
    1.0224    0.2371   -4.5049 H   0  0  0  0  0  0  0  0  0 80  0  0
    2.3905   -0.5891   -5.8902 C   0  0  2  0  0  0  0  0  0 81  0  0
    2.7194   -1.2594   -5.0860 H   0  0  0  0  0  0  0  0  0 82  0  0
    3.0610    0.2818   -5.9079 H   0  0  0  0  0  0  0  0  0 83  0  0
   -2.9903    1.1234   -6.0540 O   0  0  0  0  0  0  0  0  0 84  0  0
   -2.4165   -1.6604   -5.6611 O   0  0  0  0  0  0  0  0  0 85  0  0
    0.1865   -2.1525   -4.5978 O   0  0  0  0  0  0  0  0  0 86  0  0
    0.6722    1.0252   -6.3799 O   0  0  0  0  0  0  0  0  0 87  0  0
    2.3533   -1.2560   -7.1501 O   0  0  0  0  0  0  0  0  0 88  0  0
    0.8759   -3.3614   -4.9384 C   0  0  2  0  0  0  0  0  0 89  0  0
    1.3208   -3.2664   -5.9327 H   0  0  0  0  0  0  0  0  0 90  0  0
   -0.1457   -4.5117   -4.9057 C   0  0  1  0  0  0  0  0  0 91  0  0
    0.3662   -5.4313   -5.2125 H   0  0  0  0  0  0  0  0  0 92  0  0
   -0.6437   -4.7050   -3.4701 C   0  0  2  0  0  0  0  0  0 93  0  0
   -1.2301   -3.8134   -3.1888 H   0  0  0  0  0  0  0  0  0 94  0  0
    0.5563   -4.7940   -2.5238 C   0  0  1  0  0  0  0  0  0 95  0  0
    1.1048   -5.7189   -2.7317 H   0  0  0  0  0  0  0  0  0 96  0  0
    1.5264   -3.6257   -2.6681 C   0  0  1  0  0  0  0  0  0 97  0  0
    1.0011   -2.6983   -2.4083 H   0  0  0  0  0  0  0  0  0 98  0  0
    2.7754   -3.7425   -1.7795 C   0  0  2  0  0  0  0  0  0 99  0  0
    2.5544   -3.2687   -0.8131 H   0  0  0  0  0  0  0  0  0100  0  0
    3.5649   -3.1544   -2.2543 H   0  0  0  0  0  0  0  0  0101  0  0
   -1.1658   -4.2863   -5.8513 O   0  0  0  0  0  0  0  0  0102  0  0
   -1.4204   -5.8805   -3.3957 O   0  0  0  0  0  0  0  0  0103  0  0
    0.0283   -4.8241   -1.1876 O   0  0  0  0  0  0  0  0  0104  0  0
    1.9441   -3.5481   -4.0424 O   0  0  0  0  0  0  0  0  0105  0  0
    3.2418   -5.0679   -1.5920 O   0  0  0  0  0  0  0  0  0106  0  0
    0.3474   -5.9226   -0.3809 C   0  0  2  0  0  0  0  0  0107  0  0
    0.7393   -6.7496   -0.9810 H   0  0  0  0  0  0  0  0  0108  0  0
   -0.9122   -6.3588    0.3709 C   0  0  1  0  0  0  0  0  0109  0  0
   -0.6530   -7.2424    0.9730 H   0  0  0  0  0  0  0  0  0110  0  0
   -1.3521   -5.2499    1.3135 C   0  0  2  0  0  0  0  0  0111  0  0
   -1.6272   -4.3752    0.7055 H   0  0  0  0  0  0  0  0  0112  0  0
   -0.1849   -4.8676    2.2157 C   0  0  1  0  0  0  0  0  0113  0  0
    0.0808   -5.7204    2.8503 H   0  0  0  0  0  0  0  0  0114  0  0
    1.0545   -4.4811    1.4103 C   0  0  1  0  0  0  0  0  0115  0  0
    0.8352   -3.6023    0.7936 H   0  0  0  0  0  0  0  0  0116  0  0
    2.2722   -4.1600    2.2877 C   0  0  2  0  0  0  0  0  0117  0  0
    2.2552   -3.0867    2.5012 H   0  0  0  0  0  0  0  0  0118  0  0
    3.1676   -4.3605    1.6884 H   0  0  0  0  0  0  0  0  0119  0  0
   -1.9225   -6.6806   -0.5739 O   0  0  0  0  0  0  0  0  0120  0  0
   -2.4627   -5.7340    2.0478 O   0  0  0  0  0  0  0  0  0121  0  0
   -0.6140   -3.7657    3.0212 O   0  0  0  0  0  0  0  0  0122  0  0
    1.3801   -5.6012    0.5481 O   0  0  0  0  0  0  0  0  0123  0  0
    2.3633   -4.9328    3.4758 O   0  0  0  0  0  0  0  0  0124  0  0
    2.9204    3.1201    4.4427 H   0  0  0  0  0  0  0  0  0125  0  0
    2.7883    2.4091    6.0737 H   0  0  0  0  0  0  0  0  0126  0  0
   -3.8369   -3.3099    4.3638 H   0  0  0  0  0  0  0  0  0127  0  0
   -3.1808   -0.3520    5.0474 H   0  0  0  0  0  0  0  0  0128  0  0
    2.4658   -1.3920    7.3921 H   0  0  0  0  0  0  0  0  0129  0  0
    2.8079    4.6794    6.2814 H   0  0  0  0  0  0  0  0  0130  0  0
   -3.5723    2.0039    4.3612 H   0  0  0  0  0  0  0  0  0131  0  0
   -2.0285    4.4058    3.4616 H   0  0  0  0  0  0  0  0  0132  0  0
   -0.7090    6.5694    3.9209 H   0  0  0  0  0  0  0  0  0133  0  0
   -2.1876    6.4606    1.2171 H   0  0  0  0  0  0  0  0  0134  0  0
    3.7320    5.5217   -1.6850 H   0  0  0  0  0  0  0  0  0135  0  0
    0.5114    5.8664   -5.7537 H   0  0  0  0  0  0  0  0  0136  0  0
   -2.6295    5.2688   -0.8400 H   0  0  0  0  0  0  0  0  0137  0  0
   -3.7623    2.8730   -3.0309 H   0  0  0  0  0  0  0  0  0138  0  0
   -2.9904    1.5748   -5.1872 H   0  0  0  0  0  0  0  0  0139  0  0
   -3.2779   -1.2205   -5.7148 H   0  0  0  0  0  0  0  0  0140  0  0
    3.2029   -1.6955   -7.2752 H   0  0  0  0  0  0  0  0  0141  0  0
   -1.6734   -3.4983   -5.5888 H   0  0  0  0  0  0  0  0  0142  0  0
   -1.6902   -6.0019   -2.4680 H   0  0  0  0  0  0  0  0  0143  0  0
    2.8203   -5.3938   -0.7800 H   0  0  0  0  0  0  0  0  0144  0  0
   -2.7551   -6.7075   -0.0799 H   0  0  0  0  0  0  0  0  0145  0  0
   -2.7554   -5.0372    2.6650 H   0  0  0  0  0  0  0  0  0146  0  0
    1.8548   -4.4647    4.1582 H   0  0  0  0  0  0  0  0  0147  0  0
    1.8455    0.5674   -0.9050 N   0  0  0  0  0  0  0  0  0148  0  0
    0.9588   -0.3789   -1.5792 C   0  0  2  0  0  0  0  0  0149  0  0
    1.3561   -0.3597   -3.0613 C   0  0  0  0  0  0  0  0  0150  0  0
    2.0454   -1.1866   -3.5963 O   0  0  0  0  0  0  0  0  0151  0  0
    0.9620    0.7536   -3.7563 O   0  0  0  0  0  0  0  0  0152  0  0
   -0.5444   -0.1153   -1.3364 C   0  0  2  0  0  0  0  0  0153  0  0
   -0.8891    0.0013    0.1294 C   0  0  0  0  0  0  0  0  0154  0  0
   -1.1438    1.2559    0.6965 C   0  0  0  0  0  0  0  0  0155  0  0
   -0.9323   -1.1370    0.9469 C   0  0  0  0  0  0  0  0  0156  0  0
   -1.4553    1.3754    2.0525 C   0  0  0  0  0  0  0  0  0157  0  0
   -1.2195   -1.0172    2.3063 C   0  0  0  0  0  0  0  0  0158  0  0
   -1.4828    0.2387    2.8617 C   0  0  0  0  0  0  0  0  0159  0  0
    3.6495    1.2337    0.5770 C   0  0  2  0  0  0  0  0  0160  0  0
    2.5942    0.2131    0.1903 C   0  0  0  0  0  0  0  0  0161  0  0
    2.4210   -0.8389    0.7944 O   0  0  0  0  0  0  0  0  0162  0  0
    2.1064    1.4045   -1.4041 H   0  0  0  0  0  0  0  0  0163  0  0
    1.2126   -1.3643   -1.1921 H   0  0  0  0  0  0  0  0  0164  0  0
    0.2151    1.1823   -3.3101 H   0  0  0  0  0  0  0  0  0165  0  0
   -1.0981   -0.9352   -1.8079 H   0  0  0  0  0  0  0  0  0166  0  0
   -0.8636    0.8036   -1.8439 H   0  0  0  0  0  0  0  0  0167  0  0
   -1.1065    2.1494    0.0782 H   0  0  0  0  0  0  0  0  0168  0  0
   -0.7380   -2.1190    0.5219 H   0  0  0  0  0  0  0  0  0169  0  0
   -1.6588    2.3561    2.4702 H   0  0  0  0  0  0  0  0  0170  0  0
   -1.2226   -1.8999    2.9374 H   0  0  0  0  0  0  0  0  0171  0  0
   -1.6956    0.3291    3.9234 H   0  0  0  0  0  0  0  0  0172  0  0
    4.3568    1.3818   -0.2465 H   0  0  0  0  0  0  0  0  0173  0  0
    4.1913    0.8577    1.4447 H   0  0  0  0  0  0  0  0  0174  0  0
    3.1951    2.1997    0.8154 H   0  0  0  0  0  0  0  0  0175  0  0
  1  2  1  6
  1  3  1  0
  1 17  1  0
  1122  1  0
  3  4  1  1
  3  5  1  0
  3 14  1  0
  5  6  1  6
  5  7  1  0
  5 15  1  0
  7  8  1  1
  7  9  1  0
  7 16  1  0
  9 10  1  6
  9 11  1  0
  9 17  1  0
 11 12  1  1
 11 13  1  0
 11 18  1  0
 14127  1  0
 15128  1  0
 16 19  1  0
 18129  1  0
 19 20  1  1
 19 21  1  0
 19 34  1  0
 21 22  1  1
 21 23  1  0
 21 31  1  0
 23 24  1  6
 23 25  1  0
 23 32  1  0
 25 26  1  1
 25 27  1  0
 25 33  1  0
 27 28  1  6
 27 29  1  0
 27 34  1  0
 29 30  1  0
 29125  1  6
 29126  1  0
 30130  1  0
 31131  1  0
 32132  1  0
 33 35  1  0
 35 36  1  1
 35 37  1  0
 35 51  1  0
 37 38  1  6
 37 39  1  0
 37 48  1  0
 39 40  1  1
 39 41  1  0
 39 49  1  0
 41 42  1  6
 41 43  1  0
 41 50  1  0
 43 44  1  1
 43 45  1  0
 43 51  1  0
 45 46  1  6
 45 47  1  0
 45 52  1  0
 48133  1  0
 49134  1  0
 50 53  1  0
 52135  1  0
 53 54  1  1
 53 55  1  0
 53 70  1  0
 55 56  1  6
 55 57  1  0
 55 67  1  0
 57 58  1  1
 57 59  1  0
 57 68  1  0
 59 60  1  6
 59 61  1  0
 59 69  1  0
 61 62  1  1
 61 63  1  0
 61 70  1  0
 63 64  1  6
 63 65  1  0
 63 66  1  0
 66136  1  0
 67137  1  0
 68138  1  0
 69 71  1  0
 71 72  1  6
 71 73  1  0
 71 87  1  0
 73 74  1  6
 73 75  1  0
 73 84  1  0
 75 76  1  1
 75 77  1  0
 75 85  1  0
 77 78  1  6
 77 79  1  0
 77 86  1  0
 79 80  1  1
 79 81  1  0
 79 87  1  0
 81 82  1  1
 81 83  1  0
 81 88  1  0
 84139  1  0
 85140  1  0
 86 89  1  0
 88141  1  0
 89 90  1  6
 89 91  1  0
 89105  1  0
 91 92  1  6
 91 93  1  0
 91102  1  0
 93 94  1  1
 93 95  1  0
 93103  1  0
 95 96  1  6
 95 97  1  0
 95104  1  0
 97 98  1  1
 97 99  1  0
 97105  1  0
 99100  1  1
 99101  1  0
 99106  1  0
102142  1  0
103143  1  0
104107  1  0
106144  1  0
107108  1  6
107109  1  0
107123  1  0
109110  1  1
109111  1  0
109120  1  0
111112  1  6
111113  1  0
111121  1  0
113114  1  1
113115  1  0
113122  1  0
115116  1  6
115117  1  0
115123  1  0
117118  1  1
117119  1  0
117124  1  0
120145  1  0
121146  1  0
124147  1  0
148149  1  0
148161  1  0
148163  1  0
149150  1  0
149153  1  0
149164  1  1
150151  2  0
150152  1  0
152165  1  0
153154  1  0
153166  1  6
153167  1  0
154155  4  0
154156  4  0
155157  4  0
155168  1  0
156158  4  0
156169  1  0
157159  4  0
157170  1  0
158159  4  0
158171  1  0
159172  1  0
160161  1  0
160173  1  6
160174  1  0
160175  1  0
161162  2  0
M  END
