
     RDKit          3D

175182  0  0  0  0  0  0  0  0999 V2000
   -0.5806   -3.9653    4.3808 C   0  0  2  0  0  0  0  0  0  1  0  0
   -0.5471   -5.0308    4.6283 H   0  0  0  0  0  0  0  0  0  2  0  0
   -1.8617   -3.3274    4.9150 C   0  0  1  0  0  0  0  0  0  3  0  0
   -1.9185   -3.5328    5.9937 H   0  0  0  0  0  0  0  0  0  4  0  0
   -1.8146   -1.8234    4.7023 C   0  0  2  0  0  0  0  0  0  5  0  0
   -1.7559   -1.6301    3.6249 H   0  0  0  0  0  0  0  0  0  6  0  0
   -0.5513   -1.2388    5.3278 C   0  0  1  0  0  0  0  0  0  7  0  0
   -0.5864   -1.3128    6.4197 H   0  0  0  0  0  0  0  0  0  8  0  0
    0.6910   -1.9708    4.7976 C   0  0  1  0  0  0  0  0  0  9  0  0
    0.7818   -1.7752    3.7209 H   0  0  0  0  0  0  0  0  0 10  0  0
    1.9750   -1.5306    5.4736 C   0  0  2  0  0  0  0  0  0 11  0  0
    2.1899   -0.5019    5.1476 H   0  0  0  0  0  0  0  0  0 12  0  0
    2.7864   -2.1826    5.1165 H   0  0  0  0  0  0  0  0  0 13  0  0
   -2.9783   -3.9003    4.2426 O   0  0  0  0  0  0  0  0  0 14  0  0
   -3.0097   -1.2981    5.2523 O   0  0  0  0  0  0  0  0  0 15  0  0
   -0.4605    0.1283    4.9126 O   0  0  0  0  0  0  0  0  0 16  0  0
    0.5490   -3.3901    5.0274 O   0  0  0  0  0  0  0  0  0 17  0  0
    1.8062   -1.6083    6.8811 O   0  0  0  0  0  0  0  0  0 18  0  0
   -0.6836    1.1637    5.8300 C   0  0  2  0  0  0  0  0  0 19  0  0
   -1.0134    0.7802    6.8005 H   0  0  0  0  0  0  0  0  0 20  0  0
   -1.7084    2.1309    5.2222 C   0  0  1  0  0  0  0  0  0 21  0  0
   -1.8263    2.9725    5.9212 H   0  0  0  0  0  0  0  0  0 22  0  0
   -1.1712    2.6413    3.8854 C   0  0  2  0  0  0  0  0  0 23  0  0
   -1.0386    1.7823    3.2226 H   0  0  0  0  0  0  0  0  0 24  0  0
    0.1797    3.3065    4.1034 C   0  0  1  0  0  0  0  0  0 25  0  0
    0.0524    4.2242    4.6848 H   0  0  0  0  0  0  0  0  0 26  0  0
    1.1257    2.3683    4.8745 C   0  0  1  0  0  0  0  0  0 27  0  0
    1.3508    1.5152    4.2264 H   0  0  0  0  0  0  0  0  0 28  0  0
    2.4354    3.0468    5.2387 C   0  0  2  0  0  0  0  0  0 29  0  0
    2.1689    4.3452    5.7711 O   0  0  0  0  0  0  0  0  0 30  0  0
   -2.9594    1.4811    5.0319 O   0  0  0  0  0  0  0  0  0 31  0  0
   -2.1412    3.4841    3.2654 O   0  0  0  0  0  0  0  0  0 32  0  0
    0.7542    3.5880    2.8234 O   0  0  0  0  0  0  0  0  0 33  0  0
    0.5085    1.8952    6.0777 O   0  0  0  0  0  0  0  0  0 34  0  0
    1.2508    4.8919    2.5864 C   0  0  2  0  0  0  0  0  0 35  0  0
    1.7863    5.2637    3.4693 H   0  0  0  0  0  0  0  0  0 36  0  0
    0.1241    5.8579    2.1652 C   0  0  1  0  0  0  0  0  0 37  0  0
    0.5776    6.8334    1.9465 H   0  0  0  0  0  0  0  0  0 38  0  0
   -0.5537    5.3274    0.9085 C   0  0  2  0  0  0  0  0  0 39  0  0
   -1.0128    4.3586    1.1366 H   0  0  0  0  0  0  0  0  0 40  0  0
    0.4930    5.1501   -0.1879 C   0  0  1  0  0  0  0  0  0 41  0  0
    0.8871    6.1279   -0.4866 H   0  0  0  0  0  0  0  0  0 42  0  0
    1.6574    4.2866    0.3150 C   0  0  1  0  0  0  0  0  0 43  0  0
    1.2820    3.2684    0.4797 H   0  0  0  0  0  0  0  0  0 44  0  0
    2.8040    4.2280   -0.6810 C   0  0  2  0  0  0  0  0  0 45  0  0
    2.4657    3.6479   -1.5511 H   0  0  0  0  0  0  0  0  0 46  0  0
    3.6367    3.6839   -0.2061 H   0  0  0  0  0  0  0  0  0 47  0  0
   -0.9049    6.0135    3.1579 O   0  0  0  0  0  0  0  0  0 48  0  0
   -1.5484    6.2475    0.4391 O   0  0  0  0  0  0  0  0  0 49  0  0
   -0.0749    4.4761   -1.3044 O   0  0  0  0  0  0  0  0  0 50  0  0
    2.1865    4.8134    1.5465 O   0  0  0  0  0  0  0  0  0 51  0  0
    3.1790    5.5456   -1.0400 O   0  0  0  0  0  0  0  0  0 52  0  0
   -0.6457    5.2890   -2.3178 C   0  0  2  0  0  0  0  0  0 53  0  0
   -0.7111    6.3267   -1.9785 H   0  0  0  0  0  0  0  0  0 54  0  0
   -2.0391    4.7371   -2.6498 C   0  0  1  0  0  0  0  0  0 55  0  0
   -2.4846    5.4131   -3.3967 H   0  0  0  0  0  0  0  0  0 56  0  0
   -1.9128    3.3496   -3.2711 C   0  0  2  0  0  0  0  0  0 57  0  0
   -1.5423    2.6680   -2.4966 H   0  0  0  0  0  0  0  0  0 58  0  0
   -0.9277    3.3438   -4.4294 C   0  0  1  0  0  0  0  0  0 59  0  0
   -1.3625    3.8765   -5.2828 H   0  0  0  0  0  0  0  0  0 60  0  0
    0.3965    4.0162   -4.0411 C   0  0  1  0  0  0  0  0  0 61  0  0
    0.8985    3.3794   -3.2994 H   0  0  0  0  0  0  0  0  0 62  0  0
    1.3180    4.2198   -5.2367 C   0  0  2  0  0  0  0  0  0 63  0  0
    1.5484    3.2484   -5.6828 H   0  0  0  0  0  0  0  0  0 64  0  0
    2.2563    4.6720   -4.8808 H   0  0  0  0  0  0  0  0  0 65  0  0
    0.7002    5.0080   -6.2414 O   0  0  0  0  0  0  0  0  0 66  0  0
   -2.8713    4.6125   -1.5120 O   0  0  0  0  0  0  0  0  0 67  0  0
   -3.1701    2.8918   -3.7608 O   0  0  0  0  0  0  0  0  0 68  0  0
   -0.6664    1.9845   -4.7473 O   0  0  0  0  0  0  0  0  0 69  0  0
    0.1728    5.3124   -3.4667 O   0  0  0  0  0  0  0  0  0 70  0  0
   -0.6547    1.5703   -6.1196 C   0  0  2  0  0  0  0  0  0 71  0  0
   -0.7800    2.4369   -6.7758 H   0  0  0  0  0  0  0  0  0 72  0  0
   -1.7909    0.5576   -6.2983 C   0  0  1  0  0  0  0  0  0 73  0  0
   -1.7937    0.2337   -7.3448 H   0  0  0  0  0  0  0  0  0 74  0  0
   -1.5297   -0.6607   -5.4102 C   0  0  2  0  0  0  0  0  0 75  0  0
   -1.5787   -0.3338   -4.3604 H   0  0  0  0  0  0  0  0  0 76  0  0
   -0.1434   -1.2294   -5.6721 C   0  0  1  0  0  0  0  0  0 77  0  0
   -0.1340   -1.7076   -6.6561 H   0  0  0  0  0  0  0  0  0 78  0  0
    0.9244   -0.1256   -5.6049 C   0  0  1  0  0  0  0  0  0 79  0  0
    0.9715    0.2158   -4.5690 H   0  0  0  0  0  0  0  0  0 80  0  0
    2.3097   -0.6172   -5.9792 C   0  0  2  0  0  0  0  0  0 81  0  0
    2.6527   -1.2865   -5.1799 H   0  0  0  0  0  0  0  0  0 82  0  0
    2.9819    0.2519   -6.0122 H   0  0  0  0  0  0  0  0  0 83  0  0
   -3.0690    1.1089   -6.0403 O   0  0  0  0  0  0  0  0  0 84  0  0
   -2.4946   -1.6754   -5.6521 O   0  0  0  0  0  0  0  0  0 85  0  0
    0.1277   -2.1718   -4.6395 O   0  0  0  0  0  0  0  0  0 86  0  0
    0.5861    1.0004   -6.4385 O   0  0  0  0  0  0  0  0  0 87  0  0
    2.2457   -1.2870   -7.2363 O   0  0  0  0  0  0  0  0  0 88  0  0
    0.8071   -3.3833   -4.9907 C   0  0  2  0  0  0  0  0  0 89  0  0
    1.2325   -3.2918   -5.9939 H   0  0  0  0  0  0  0  0  0 90  0  0
   -0.2166   -4.5308   -4.9350 C   0  0  1  0  0  0  0  0  0 91  0  0
    0.2868   -5.4525   -5.2496 H   0  0  0  0  0  0  0  0  0 92  0  0
   -0.6865   -4.7194   -3.4893 C   0  0  2  0  0  0  0  0  0 93  0  0
   -1.2649   -3.8256   -3.1986 H   0  0  0  0  0  0  0  0  0 94  0  0
    0.5317   -4.8093   -2.5667 C   0  0  1  0  0  0  0  0  0 95  0  0
    1.0736   -5.7361   -2.7832 H   0  0  0  0  0  0  0  0  0 96  0  0
    1.5018   -3.6438   -2.7331 C   0  0  1  0  0  0  0  0  0 97  0  0
    0.9842   -2.7144   -2.4652 H   0  0  0  0  0  0  0  0  0 98  0  0
    2.7679   -3.7618   -1.8692 C   0  0  2  0  0  0  0  0  0 99  0  0
    2.5674   -3.2851   -0.8998 H   0  0  0  0  0  0  0  0  0100  0  0
    3.5493   -3.1769   -2.3610 H   0  0  0  0  0  0  0  0  0101  0  0
   -1.2547   -4.3050   -5.8606 O   0  0  0  0  0  0  0  0  0102  0  0
   -1.4646   -5.8927   -3.3966 O   0  0  0  0  0  0  0  0  0103  0  0
    0.0303   -4.8347   -1.2202 O   0  0  0  0  0  0  0  0  0104  0  0
    1.8924   -3.5706   -4.1156 O   0  0  0  0  0  0  0  0  0105  0  0
    3.2345   -5.0880   -1.6877 O   0  0  0  0  0  0  0  0  0106  0  0
    0.3625   -5.9322   -0.4173 C   0  0  2  0  0  0  0  0  0107  0  0
    0.7403   -6.7616   -1.0231 H   0  0  0  0  0  0  0  0  0108  0  0
   -0.8831   -6.3633    0.3603 C   0  0  1  0  0  0  0  0  0109  0  0
   -0.6142   -7.2461    0.9593 H   0  0  0  0  0  0  0  0  0110  0  0
   -1.3013   -5.2510    1.3088 C   0  0  2  0  0  0  0  0  0111  0  0
   -1.5862   -4.3771    0.7042 H   0  0  0  0  0  0  0  0  0112  0  0
   -0.1154   -4.8696    2.1867 C   0  0  1  0  0  0  0  0  0113  0  0
    0.1606   -5.7216    2.8180 H   0  0  0  0  0  0  0  0  0114  0  0
    1.1088   -4.4882    1.3559 C   0  0  1  0  0  0  0  0  0115  0  0
    0.8795   -3.6104    0.7415 H   0  0  0  0  0  0  0  0  0116  0  0
    2.3444   -4.1683    2.2082 C   0  0  2  0  0  0  0  0  0117  0  0
    2.3344   -3.0945    2.4194 H   0  0  0  0  0  0  0  0  0118  0  0
    3.2272   -4.3725    1.5917 H   0  0  0  0  0  0  0  0  0119  0  0
   -1.9127   -6.6847   -0.5635 O   0  0  0  0  0  0  0  0  0120  0  0
   -2.3983   -5.7305    2.0661 O   0  0  0  0  0  0  0  0  0121  0  0
   -0.5256   -3.7647    2.9978 O   0  0  0  0  0  0  0  0  0122  0  0
    1.4143   -5.6113    0.4902 O   0  0  0  0  0  0  0  0  0123  0  0
    2.4571   -4.9384    3.3962 O   0  0  0  0  0  0  0  0  0124  0  0
    3.0539    3.1153    4.3321 H   0  0  0  0  0  0  0  0  0125  0  0
    2.9523    2.4085    5.9672 H   0  0  0  0  0  0  0  0  0126  0  0
   -3.7202   -3.2972    4.4029 H   0  0  0  0  0  0  0  0  0127  0  0
   -3.0430   -0.3394    5.0662 H   0  0  0  0  0  0  0  0  0128  0  0
    2.6463   -1.3886    7.3010 H   0  0  0  0  0  0  0  0  0129  0  0
    2.9819    4.6792    6.1689 H   0  0  0  0  0  0  0  0  0130  0  0
   -3.4419    2.0158    4.3821 H   0  0  0  0  0  0  0  0  0131  0  0
   -1.9102    4.4116    3.4462 H   0  0  0  0  0  0  0  0  0132  0  0
   -0.5763    6.5727    3.8740 H   0  0  0  0  0  0  0  0  0133  0  0
   -2.1084    6.4614    1.2003 H   0  0  0  0  0  0  0  0  0134  0  0
    3.7500    5.5001   -1.8162 H   0  0  0  0  0  0  0  0  0135  0  0
    0.4502    5.8434   -5.8212 H   0  0  0  0  0  0  0  0  0136  0  0
   -2.5941    5.2658   -0.8446 H   0  0  0  0  0  0  0  0  0137  0  0
   -3.7763    2.8678   -3.0068 H   0  0  0  0  0  0  0  0  0138  0  0
   -3.0506    1.5624   -5.1748 H   0  0  0  0  0  0  0  0  0139  0  0
   -3.3557   -1.2333   -5.6898 H   0  0  0  0  0  0  0  0  0140  0  0
    3.0916   -1.7291   -7.3772 H   0  0  0  0  0  0  0  0  0141  0  0
   -1.7549   -3.5150   -5.5901 H   0  0  0  0  0  0  0  0  0142  0  0
   -1.7163   -6.0111   -2.4634 H   0  0  0  0  0  0  0  0  0143  0  0
    2.8283   -5.4108   -0.8667 H   0  0  0  0  0  0  0  0  0144  0  0
   -2.7354   -6.7083   -0.0530 H   0  0  0  0  0  0  0  0  0145  0  0
   -2.6770   -5.0314    2.6873 H   0  0  0  0  0  0  0  0  0146  0  0
    1.9634   -4.4674    4.0874 H   0  0  0  0  0  0  0  0  0147  0  0
    5.0853    0.9258   -0.1016 N   0  0  0  0  0  0  0  0  0148  0  0
    4.6479    0.1214   -1.2409 C   0  0  2  0  0  0  0  0  0149  0  0
    5.6786    0.3551   -2.3536 C   0  0  0  0  0  0  0  0  0150  0  0
    6.5715   -0.4009   -2.6297 O   0  0  0  0  0  0  0  0  0151  0  0
    5.5986    1.5732   -2.9761 O   0  0  0  0  0  0  0  0  0152  0  0
    3.1905    0.3908   -1.6788 C   0  0  2  0  0  0  0  0  0153  0  0
    2.2081    0.2920   -0.5359 C   0  0  0  0  0  0  0  0  0154  0  0
    1.6678    1.4524    0.0320 C   0  0  0  0  0  0  0  0  0155  0  0
    1.8448   -0.9560   -0.0105 C   0  0  0  0  0  0  0  0  0156  0  0
    0.7651    1.3724    1.0944 C   0  0  0  0  0  0  0  0  0157  0  0
    0.9621   -1.0370    1.0660 C   0  0  0  0  0  0  0  0  0158  0  0
    0.4194    0.1266    1.6199 C   0  0  0  0  0  0  0  0  0159  0  0
    5.9796    1.3018    2.1240 C   0  0  2  0  0  0  0  0  0160  0  0
    5.2640    0.3852    1.1481 C   0  0  0  0  0  0  0  0  0161  0  0
    4.8792   -0.7410    1.4398 O   0  0  0  0  0  0  0  0  0162  0  0
    5.5093    1.8210   -0.2934 H   0  0  0  0  0  0  0  0  0163  0  0
    4.7387   -0.9189   -0.9333 H   0  0  0  0  0  0  0  0  0164  0  0
    4.7125    1.9512   -2.8639 H   0  0  0  0  0  0  0  0  0165  0  0
    2.9505   -0.3300   -2.4687 H   0  0  0  0  0  0  0  0  0166  0  0
    3.0997    1.3859   -2.1318 H   0  0  0  0  0  0  0  0  0167  0  0
    1.9453    2.4284   -0.3583 H   0  0  0  0  0  0  0  0  0168  0  0
    2.2546   -1.8669   -0.4407 H   0  0  0  0  0  0  0  0  0169  0  0
    0.3506    2.2834    1.5138 H   0  0  0  0  0  0  0  0  0170  0  0
    0.7087   -2.0054    1.4849 H   0  0  0  0  0  0  0  0  0171  0  0
   -0.2597    0.0600    2.4655 H   0  0  0  0  0  0  0  0  0172  0  0
    6.9783    1.5524    1.7498 H   0  0  0  0  0  0  0  0  0173  0  0
    6.0795    0.7810    3.0762 H   0  0  0  0  0  0  0  0  0174  0  0
    5.4250    2.2334    2.2691 H   0  0  0  0  0  0  0  0  0175  0  0
  1  2  1  6
  1  3  1  0
  1 17  1  0
  1122  1  0
  3  4  1  1
  3  5  1  0
  3 14  1  0
  5  6  1  6
  5  7  1  0
  5 15  1  0
  7  8  1  1
  7  9  1  0
  7 16  1  0
  9 10  1  6
  9 11  1  0
  9 17  1  0
 11 12  1  1
 11 13  1  0
 11 18  1  0
 14127  1  0
 15128  1  0
 16 19  1  0
 18129  1  0
 19 20  1  1
 19 21  1  0
 19 34  1  0
 21 22  1  1
 21 23  1  0
 21 31  1  0
 23 24  1  6
 23 25  1  0
 23 32  1  0
 25 26  1  1
 25 27  1  0
 25 33  1  0
 27 28  1  6
 27 29  1  0
 27 34  1  0
 29 30  1  0
 29125  1  6
 29126  1  0
 30130  1  0
 31131  1  0
 32132  1  0
 33 35  1  0
 35 36  1  1
 35 37  1  0
 35 51  1  0
 37 38  1  6
 37 39  1  0
 37 48  1  0
 39 40  1  1
 39 41  1  0
 39 49  1  0
 41 42  1  6
 41 43  1  0
 41 50  1  0
 43 44  1  1
 43 45  1  0
 43 51  1  0
 45 46  1  6
 45 47  1  0
 45 52  1  0
 48133  1  0
 49134  1  0
 50 53  1  0
 52135  1  0
 53 54  1  1
 53 55  1  0
 53 70  1  0
 55 56  1  6
 55 57  1  0
 55 67  1  0
 57 58  1  1
 57 59  1  0
 57 68  1  0
 59 60  1  6
 59 61  1  0
 59 69  1  0
 61 62  1  1
 61 63  1  0
 61 70  1  0
 63 64  1  6
 63 65  1  0
 63 66  1  0
 66136  1  0
 67137  1  0
 68138  1  0
 69 71  1  0
 71 72  1  6
 71 73  1  0
 71 87  1  0
 73 74  1  6
 73 75  1  0
 73 84  1  0
 75 76  1  1
 75 77  1  0
 75 85  1  0
 77 78  1  6
 77 79  1  0
 77 86  1  0
 79 80  1  1
 79 81  1  0
 79 87  1  0
 81 82  1  1
 81 83  1  0
 81 88  1  0
 84139  1  0
 85140  1  0
 86 89  1  0
 88141  1  0
 89 90  1  6
 89 91  1  0
 89105  1  0
 91 92  1  6
 91 93  1  0
 91102  1  0
 93 94  1  1
 93 95  1  0
 93103  1  0
 95 96  1  6
 95 97  1  0
 95104  1  0
 97 98  1  1
 97 99  1  0
 97105  1  0
 99100  1  1
 99101  1  0
 99106  1  0
102142  1  0
103143  1  0
104107  1  0
106144  1  0
107108  1  6
107109  1  0
107123  1  0
109110  1  1
109111  1  0
109120  1  0
111112  1  6
111113  1  0
111121  1  0
113114  1  1
113115  1  0
113122  1  0
115116  1  6
115117  1  0
115123  1  0
117118  1  1
117119  1  0
117124  1  0
120145  1  0
121146  1  0
124147  1  0
148149  1  0
148161  1  0
148163  1  0
149150  1  0
149153  1  0
149164  1  1
150151  2  0
150152  1  0
152165  1  0
153154  1  0
153166  1  6
153167  1  0
154155  4  0
154156  4  0
155157  4  0
155168  1  0
156158  4  0
156169  1  0
157159  4  0
157170  1  0
158159  4  0
158171  1  0
159172  1  0
160161  1  0
160173  1  6
160174  1  0
160175  1  0
161162  2  0
M  END
