muliframe_PDB_alphaCD_0003
 OpenBabel08172623063D

  0  0  0     0  0            999 V3000
M  V30 BEGIN CTAB
M  V30 COUNTS 3742 2542 0 0 1
M  V30 BEGIN ATOM
M  V30 1 Mo -2.255 8.496 -3.074 0
M  V30 2 S -0.248 8.42 -1.963 0
M  V30 3 S -2.189 9.236 -5.275 0
M  V30 4 S -3.115 6.344 -2.973 0
M  V30 5 S -3.545 10.101 -1.976 0
M  V30 6 C 2.509 -6.499 -7.082 0
M  V30 7 C 3.981 -6.207 -7.499 0
M  V30 8 C 4.451 -4.737 -7.055 0
M  V30 9 C 3.339 -3.656 -7.412 0
M  V30 10 C 1.97 -4.183 -7.029 0
M  V30 11 C 0.717 -3.259 -7.3 0
M  V30 12 C 4.569 -1.576 -7.277 0
M  V30 13 C 5.474 -1.128 -5.96 0
M  V30 14 C 6.55 -0.083 -6.5 0
M  V30 15 C 5.753 1.117 -7.052 0
M  V30 16 C 4.756 0.635 -8.16 0
M  V30 17 C 5.348 0.417 -9.533 0
M  V30 18 O 1.628 -5.5 -7.465 0
M  V30 19 O 4.232 -6.497 -8.855 0
M  V30 20 O 4.805 -4.781 -5.69 0
M  V30 21 O 0.529 -3.128 -8.644 0
M  V30 22 O 3.549 -2.383 -6.724 0
M  V30 23 O 3.912 -0.456 -7.751 0
M  V30 24 O 6.083 -2.133 -5.24 0
M  V30 25 O 7.494 0.299 -5.484 0
M  V30 26 O 2.557 -6.572 -5.7 0
M  V30 27 O 6.453 -0.469 -9.699 0
M  V30 28 C 1.532 -7.189 -4.95 0
M  V30 29 C 1.792 -6.907 -3.483 0
M  V30 30 C 1.418 -5.498 -3.133 0
M  V30 31 C 0.005 -5.183 -3.525 0
M  V30 32 O -0.139 -3.799 -3.31 0
M  V30 33 C -1.358 -3.329 -2.704 0
M  V30 34 C -1.366 -3.665 -1.231 0
M  V30 35 C -2.508 -2.898 -0.492 0
M  V30 36 C -2.587 -1.424 -0.989 0
M  V30 37 O -2.582 -1.396 -2.392 0
M  V30 38 C -1.347 -1.838 -2.961 0
M  V30 39 C -1.401 -1.532 -4.482 0
M  V30 40 O -2.585 -1.877 -5.196 0
M  V30 41 O -1.464 -0.699 -0.476 0
M  V30 42 C -1.37 0.75 -0.529 0
M  V30 43 C -0.104 1.223 0.173 0
M  V30 44 C 1.172 0.93 -0.704 0
M  V30 45 C 0.969 1.685 -2.029 0
M  V30 46 O 2.043 1.366 -2.828 0
M  V30 47 C 2.334 2.218 -3.943 0
M  V30 48 C 3.721 2.894 -3.597 0
M  V30 49 C 4.228 3.634 -4.885 0
M  V30 50 C 4.248 2.8 -6.161 0
M  V30 51 O 2.933 2.249 -6.348 0
M  V30 52 C 2.483 1.43 -5.256 0
M  V30 53 C 1.152 0.821 -5.661 0
M  V30 54 O -0.041 1.622 -5.58 0
M  V30 55 O 5.115 1.706 -5.951 0
M  V30 56 O 3.482 4.776 -5.168 0
M  V30 57 O 4.756 1.995 -3.257 0
M  V30 58 O -0.225 1.279 -2.7 0
M  V30 59 C -1.463 1.42 -1.958 0
M  V30 60 C -1.876 2.941 -1.723 0
M  V30 61 O -2.018 3.524 -3.014 0
M  V30 62 O 2.408 1.307 -0.085 0
M  V30 63 O -0.111 0.767 1.507 0
M  V30 64 O -3.648 -3.649 -0.572 0
M  V30 65 O -0.074 -3.388 -0.64 0
M  V30 66 O -0.072 -5.396 -4.894 0
M  V30 67 C 0.101 -6.835 -5.3 0
M  V30 68 C -0.938 -7.872 -4.739 0
M  V30 69 O -2.264 -7.463 -5.031 0
M  V30 70 O 1.761 -5.145 -1.824 0
M  V30 71 O 3.115 -7.183 -3.051 0
M  V30 72 H 2.108 -7.435 -7.47 0
M  V30 73 H 4.554 -6.999 -7.016 0
M  V30 74 H 5.42 -4.586 -7.53 0
M  V30 75 H 3.318 -3.608 -8.501 0
M  V30 76 H 2.119 -4.177 -5.949 0
M  V30 77 H 0.738 -2.352 -6.696 0
M  V30 78 H -0.197 -3.764 -6.988 0
M  V30 79 H 5.206 -2.045 -8.027 0
M  V30 80 H 4.917 -0.571 -5.206 0
M  V30 81 H 7.154 -0.619 -7.232 0
M  V30 82 H 6.364 1.795 -7.648 0
M  V30 83 H 4.079 1.465 -8.361 0
M  V30 84 H 5.425 1.364 -10.068 0
M  V30 85 H 4.593 -0.136 -10.092 0
M  V30 86 H 4.008 -7.391 -9.123 0
M  V30 87 H 5.147 -3.917 -5.45 0
M  V30 88 H 0.41 -4.013 -8.995 0
M  V30 89 H 6.957 -1.816 -5 0
M  V30 90 H 7.239 1.183 -5.208 0
M  V30 91 H 6.755 -0.408 -10.608 0
M  V30 92 H 1.745 -8.244 -5.123 0
M  V30 93 H 1.219 -7.579 -2.844 0
M  V30 94 H 2.121 -4.91 -3.723 0
M  V30 95 H -0.798 -5.817 -3.151 0
M  V30 96 H -2.211 -3.793 -3.199 0
M  V30 97 H -1.586 -4.727 -1.12 0
M  V30 98 H -2.299 -2.864 0.577 0
M  V30 99 H -3.563 -0.994 -0.766 0
M  V30 100 H -0.431 -1.451 -2.515 0
M  V30 101 H -0.606 -1.973 -5.083 0
M  V30 102 H -1.333 -0.444 -4.484 0
M  V30 103 H -2.787 -2.816 -5.184 0
M  V30 104 H -2.188 1.084 0.109 0
M  V30 105 H -0.213 2.299 0.308 0
M  V30 106 H 1.281 -0.086 -1.084 0
M  V30 107 H 0.914 2.759 -1.849 0
M  V30 108 H 1.614 3.03 -4.034 0
M  V30 109 H 3.518 3.527 -2.733 0
M  V30 110 H 5.216 4.014 -4.626 0
M  V30 111 H 4.53 3.371 -7.046 0
M  V30 112 H 3.211 0.634 -5.099 0
M  V30 113 H 0.912 -0.047 -5.048 0
M  V30 114 H 1.28 0.434 -6.672 0
M  V30 115 H -0.216 1.687 -4.639 0
M  V30 116 H 3.336 5.282 -4.366 0
M  V30 117 H 4.498 1.199 -2.786 0
M  V30 118 H -2.285 1.021 -2.553 0
M  V30 119 H -1.084 3.484 -1.207 0
M  V30 120 H -2.839 3.038 -1.224 0
M  V30 121 H -2.365 4.406 -2.862 0
M  V30 122 H 2.5 0.75 0.691 0
M  V30 123 H -0.011 -0.186 1.567 0
M  V30 124 H -3.981 -3.559 -1.468 0
M  V30 125 H 0.608 -3.767 -1.2 0
M  V30 126 H -0.019 -6.881 -6.382 0
M  V30 127 H -0.878 -8.024 -3.661 0
M  V30 128 H -0.759 -8.8 -5.282 0
M  V30 129 H -2.687 -8.124 -5.585 0
M  V30 130 H 2.538 -5.646 -1.563 0
M  V30 131 H 3.752 -6.731 -3.609 0
M  V30 132 Na -2.744 1.125 -11.734 0
M  V30 133 Na 6.106 13.643 -6.409 0
M  V30 134 O -7.267 -16.272 9.96 0
M  V30 135 H -7.051 -16.542 10.852 0
M  V30 136 H -6.585 -15.642 9.728 0
M  V30 137 O -14.167 -10.741 -12.486 0
M  V30 138 H -15.075 -10.858 -12.768 0
M  V30 139 H -14.235 -10.383 -11.601 0
M  V30 140 O -16.184 5.039 14.234 0
M  V30 141 H -15.784 5.762 13.75 0
M  V30 142 H -15.746 5.048 15.085 0
M  V30 143 O 10.635 -9.234 -13.617 0
M  V30 144 H 9.926 -9.381 -12.992 0
M  V30 145 H 10.508 -9.906 -14.287 0
M  V30 146 O -8.822 -8.865 1.791 0
M  V30 147 H -8.378 -8.032 1.952 0
M  V30 148 H -8.153 -9.421 1.394 0
M  V30 149 O 13.823 -13.283 -5.219 0
M  V30 150 H 13.706 -12.738 -4.441 0
M  V30 151 H 14.77 -13.401 -5.289 0
M  V30 152 O -15.856 8.208 3.965 0
M  V30 153 H -14.949 8.202 4.271 0
M  V30 154 H -16.024 7.306 3.693 0
M  V30 155 O -4.984 -6.114 -0.321 0
M  V30 156 H -4.741 -5.203 -0.489 0
M  V30 157 H -4.192 -6.511 0.042 0
M  V30 158 O -14.487 -3.711 -7.664 0
M  V30 159 H -14.892 -3.606 -8.525 0
M  V30 160 H -14.942 -4.458 -7.274 0
M  V30 161 O 10.125 3.441 2.385 0
M  V30 162 H 10.007 4.095 3.074 0
M  V30 163 H 9.889 3.898 1.578 0
M  V30 164 O 1.365 15.175 -7.458 0
M  V30 165 H 1.452 15.681 -6.65 0
M  V30 166 H 0.42 15.083 -7.582 0
M  V30 167 O -11.049 -2.51 11.538 0
M  V30 168 H -10.654 -3.235 11.054 0
M  V30 169 H -10.976 -1.76 10.948 0
M  V30 170 O -5.887 -3.413 -6.613 0
M  V30 171 H -6.007 -2.786 -5.9 0
M  V30 172 H -5.385 -2.933 -7.272 0
M  V30 173 O 13.179 -3.924 -10.84 0
M  V30 174 H 13.789 -3.266 -11.173 0
M  V30 175 H 13.482 -4.748 -11.221 0
M  V30 176 O 2.182 -16.4 8.06 0
M  V30 177 H 1.687 -17.168 8.347 0
M  V30 178 H 2.433 -15.959 8.872 0
M  V30 179 O -15.661 2.766 11.25 0
M  V30 180 H -14.825 3.121 11.552 0
M  V30 181 H -16.056 2.383 12.033 0
M  V30 182 O -7.935 17.096 -12.391 0
M  V30 183 H -7.634 16.19 -12.311 0
M  V30 184 H -7.653 17.367 -13.264 0
M  V30 185 O 5.399 13.651 9.902 0
M  V30 186 H 5.095 12.995 10.53 0
M  V30 187 H 6.166 13.252 9.492 0
M  V30 188 O -5.201 5.057 -0.301 0
M  V30 189 H -4.913 4.579 -1.079 0
M  V30 190 H -5.382 4.375 0.346 0
M  V30 191 O -6.846 -16.929 -1.193 0
M  V30 192 H -5.962 -17.292 -1.143 0
M  V30 193 H -6.769 -16.192 -1.799 0
M  V30 194 O -2.825 -1.246 4.083 0
M  V30 195 H -3.113 -1.755 3.325 0
M  V30 196 H -2.184 -1.808 4.52 0
M  V30 197 O -6.6 -3.774 3.146 0
M  V30 198 H -6.613 -3.982 4.08 0
M  V30 199 H -5.787 -4.164 2.824 0
M  V30 200 O 11.729 -12.63 14.796 0
M  V30 201 H 11.394 -11.734 14.783 0
M  V30 202 H 11.155 -13.092 15.407 0
M  V30 203 O -9.932 -12.576 2.948 0
M  V30 204 H -10.687 -13.163 2.907 0
M  V30 205 H -10.048 -11.985 2.203 0
M  V30 206 O -8.021 8.83 2.577 0
M  V30 207 H -8.308 9.321 1.807 0
M  V30 208 H -7.319 8.265 2.253 0
M  V30 209 O 10.2 -13.25 -9.221 0
M  V30 210 H 10.722 -14.025 -9.014 0
M  V30 211 H 10.203 -12.736 -8.414 0
M  V30 212 O 5.98 -7.002 -0.489 0
M  V30 213 H 5.223 -6.419 -0.552 0
M  V30 214 H 5.624 -7.876 -0.643 0
M  V30 215 O -1.043 3.034 14.065 0
M  V30 216 H -1.648 2.753 14.752 0
M  V30 217 H -0.943 3.976 14.205 0
M  V30 218 O -5.907 14.467 9.024 0
M  V30 219 H -6.156 14.976 9.795 0
M  V30 220 H -6.24 13.587 9.2 0
M  V30 221 O 12.131 11.945 -4.248 0
M  V30 222 H 12.452 11.343 -4.92 0
M  V30 223 H 12.397 11.544 -3.421 0
M  V30 224 O -12.548 -14.253 -11.45 0
M  V30 225 H -11.786 -14.829 -11.387 0
M  V30 226 H -12.386 -13.569 -10.801 0
M  V30 227 O -5.744 8.119 -3.479 0
M  V30 228 H -5.103 7.458 -3.22 0
M  V30 229 H -5.408 8.937 -3.112 0
M  V30 230 O -7.07 4.162 -15.003 0
M  V30 231 H -7.725 3.695 -15.522 0
M  V30 232 H -7.275 3.934 -14.096 0
M  V30 233 O -12.474 -16.965 9.822 0
M  V30 234 H -11.631 -17.024 9.371 0
M  V30 235 H -13.077 -16.625 9.16 0
M  V30 236 O 11.907 7.305 10.478 0
M  V30 237 H 12.282 7.413 9.604 0
M  V30 238 H 11.841 8.196 10.822 0
M  V30 239 O 17.139 -8.481 -14.126 0
M  V30 240 H 16.344 -7.994 -14.348 0
M  V30 241 H 17.257 -8.332 -13.188 0
M  V30 242 O -10.742 0.497 6.696 0
M  V30 243 H -10.469 1.403 6.841 0
M  V30 244 H -11.293 0.288 7.451 0
M  V30 245 O 4.378 10.135 -16.372 0
M  V30 246 H 5.181 9.947 -15.887 0
M  V30 247 H 3.709 9.598 -15.947 0
M  V30 248 O 5.117 -9.797 6.968 0
M  V30 249 H 5.584 -10.39 7.557 0
M  V30 250 H 5.129 -8.953 7.419 0
M  V30 251 O 12.4 -7.686 -12.009 0
M  V30 252 H 12.105 -6.775 -12.02 0
M  V30 253 H 12.046 -8.062 -12.815 0
M  V30 254 O -8.729 -0.315 -10.753 0
M  V30 255 H -8.431 0.561 -10.997 0
M  V30 256 H -9.052 -0.694 -11.57 0
M  V30 257 O 4.075 -2.395 -16.631 0
M  V30 258 H 4.39 -1.707 -16.046 0
M  V30 259 H 4.331 -3.212 -16.202 0
M  V30 260 O 9.379 -2.924 -14.459 0
M  V30 261 H 8.478 -3.2 -14.29 0
M  V30 262 H 9.728 -2.702 -13.596 0
M  V30 263 O -8.226 -8.236 -15.036 0
M  V30 264 H -8.418 -8.718 -14.232 0
M  V30 265 H -8.687 -8.72 -15.721 0
M  V30 266 O -10.82 4.725 -11.431 0
M  V30 267 H -10.032 4.529 -11.937 0
M  V30 268 H -10.494 5.119 -10.622 0
M  V30 269 O 9.521 -13.228 16.217 0
M  V30 270 H 9.538 -14.072 15.765 0
M  V30 271 H 9.54 -13.453 17.147 0
M  V30 272 O 0.708 2.817 -8.042 0
M  V30 273 H 0.556 2.365 -7.212 0
M  V30 274 H 1.387 3.462 -7.843 0
M  V30 275 O 10.796 11.817 -6.991 0
M  V30 276 H 10.906 11.34 -6.168 0
M  V30 277 H 10.708 11.132 -7.655 0
M  V30 278 O 11.665 -15.156 4.417 0
M  V30 279 H 11.303 -14.274 4.504 0
M  V30 280 H 11.929 -15.396 5.305 0
M  V30 281 O -5.406 2.358 0.984 0
M  V30 282 H -4.569 2.685 1.313 0
M  V30 283 H -5.182 1.552 0.519 0
M  V30 284 O 1.443 -2.853 8.732 0
M  V30 285 H 1.845 -3.129 9.555 0
M  V30 286 H 2.029 -3.19 8.054 0
M  V30 287 O 11.26 7.583 -4.217 0
M  V30 288 H 11.461 7.021 -3.468 0
M  V30 289 H 10.408 7.966 -4.008 0
M  V30 290 O -0.138 -12.254 13.545 0
M  V30 291 H -0.211 -11.596 14.236 0
M  V30 292 H 0.539 -11.913 12.96 0
M  V30 293 O 9.383 8.626 -2.567 0
M  V30 294 H 8.592 8.91 -2.109 0
M  V30 295 H 9.989 8.379 -1.868 0
M  V30 296 O 6.043 -5.193 2.101 0
M  V30 297 H 6.797 -5.029 1.534 0
M  V30 298 H 6.26 -4.75 2.922 0
M  V30 299 O -12.544 -0.432 -15.477 0
M  V30 300 H -11.61 -0.56 -15.315 0
M  V30 301 H -12.832 -1.25 -15.882 0
M  V30 302 O -1.842 5.821 -0.303 0
M  V30 303 H -1.712 6.691 0.075 0
M  V30 304 H -2.309 5.983 -1.122 0
M  V30 305 O -6.892 12.984 -2.159 0
M  V30 306 H -7.463 13.487 -2.74 0
M  V30 307 H -6.536 12.29 -2.715 0
M  V30 308 O -4.484 -11.191 -13.308 0
M  V30 309 H -5.177 -11.16 -13.966 0
M  V30 310 H -3.715 -10.831 -13.75 0
M  V30 311 O -11.674 10.768 8.738 0
M  V30 312 H -11.718 11.454 8.071 0
M  V30 313 H -10.741 10.57 8.817 0
M  V30 314 O 16.548 -13.51 -5.088 0
M  V30 315 H 17.281 -13.991 -4.705 0
M  V30 316 H 16.486 -13.841 -5.984 0
M  V30 317 O -3.423 2.133 -14.296 0
M  V30 318 H -3.12 2.546 -15.105 0
M  V30 319 H -4.343 1.928 -14.462 0
M  V30 320 O -13.067 -14.689 -5.091 0
M  V30 321 H -12.246 -14.556 -5.565 0
M  V30 322 H -13.311 -15.594 -5.281 0
M  V30 323 O -10.809 -8.168 5.061 0
M  V30 324 H -10.606 -8.999 5.491 0
M  V30 325 H -10.959 -7.555 5.78 0
M  V30 326 O -10.795 -5.252 -14.68 0
M  V30 327 H -11.731 -5.411 -14.563 0
M  V30 328 H -10.394 -6.119 -14.613 0
M  V30 329 O -11.697 -5.944 -0.561 0
M  V30 330 H -11.809 -5.022 -0.795 0
M  V30 331 H -10.913 -5.959 -0.013 0
M  V30 332 O 5.966 9.119 -13.64 0
M  V30 333 H 5.393 9.429 -12.939 0
M  V30 334 H 6.134 8.202 -13.424 0
M  V30 335 O 0.633 9.038 11.851 0
M  V30 336 H 1.417 9.078 11.302 0
M  V30 337 H 0.065 9.729 11.509 0
M  V30 338 O -8.508 7.927 -3.899 0
M  V30 339 H -8.941 7.974 -3.046 0
M  V30 340 H -7.59 8.125 -3.714 0
M  V30 341 O 10.514 -12.265 -2.909 0
M  V30 342 H 10.091 -11.416 -3.038 0
M  V30 343 H 10.441 -12.429 -1.969 0
M  V30 344 O -13.475 -2.838 -12.478 0
M  V30 345 H -14.358 -2.684 -12.812 0
M  V30 346 H -13.323 -3.772 -12.624 0
M  V30 347 O -0.872 2.232 -12.873 0
M  V30 348 H -0.961 3.158 -12.649 0
M  V30 349 H -0.315 1.871 -12.183 0
M  V30 350 O 11.569 9.751 3.34 0
M  V30 351 H 12.387 9.57 3.803 0
M  V30 352 H 11.362 8.933 2.889 0
M  V30 353 O 12.487 -4.981 1.776 0
M  V30 354 H 12.312 -5.922 1.77 0
M  V30 355 H 11.647 -4.582 2.002 0
M  V30 356 O 8.202 10.637 6.217 0
M  V30 357 H 8.043 11.373 6.809 0
M  V30 358 H 8.802 10.068 6.698 0
M  V30 359 O -12.524 3.638 2.997 0
M  V30 360 H -12.41 2.899 2.398 0
M  V30 361 H -12.651 3.234 3.855 0
M  V30 362 O 3.184 12.091 0.787 0
M  V30 363 H 2.41 12.31 0.269 0
M  V30 364 H 2.993 11.226 1.149 0
M  V30 365 O -16.488 -3.19 11.065 0
M  V30 366 H -17.001 -2.458 10.723 0
M  V30 367 H -16.315 -2.957 11.977 0
M  V30 368 O 7.716 6.283 -7.064 0
M  V30 369 H 7.958 5.613 -6.425 0
M  V30 370 H 8.458 6.888 -7.069 0
M  V30 371 O -1.691 -11.634 4.74 0
M  V30 372 H -2.421 -11.794 4.141 0
M  V30 373 H -2.107 -11.479 5.588 0
M  V30 374 O 12.271 4.134 -12.282 0
M  V30 375 H 11.558 4.547 -12.768 0
M  V30 376 H 13.056 4.333 -12.791 0
M  V30 377 O 2.746 3.007 8.887 0
M  V30 378 H 2.238 3.766 9.176 0
M  V30 379 H 2.104 2.436 8.465 0
M  V30 380 O 9.632 -13.921 6.465 0
M  V30 381 H 9.426 -13.073 6.072 0
M  V30 382 H 9.86 -13.717 7.372 0
M  V30 383 O 4.251 7.796 11.782 0
M  V30 384 H 4.321 7.315 10.957 0
M  V30 385 H 4.74 7.264 12.41 0
M  V30 386 O 15.138 13.797 -5.481 0
M  V30 387 H 15.664 14.408 -5.997 0
M  V30 388 H 14.378 13.61 -6.032 0
M  V30 389 O -7.686 8.98 5.52 0
M  V30 390 H -7.813 9.46 4.701 0
M  V30 391 H -7.179 8.208 5.269 0
M  V30 392 O -14.845 0.708 -14.71 0
M  V30 393 H -13.977 0.595 -15.097 0
M  V30 394 H -15.07 -0.157 -14.366 0
M  V30 395 O 13.057 -16.223 14.181 0
M  V30 396 H 13.405 -16.8 14.862 0
M  V30 397 H 13.61 -15.443 14.222 0
M  V30 398 O -0.697 7.073 3.722 0
M  V30 399 H -1.166 7.081 2.888 0
M  V30 400 H -1.376 7.22 4.381 0
M  V30 401 O 14.02 -6.622 13.191 0
M  V30 402 H 13.885 -7.536 12.942 0
M  V30 403 H 14.557 -6.665 13.982 0
M  V30 404 O -1.336 11.905 -7.574 0
M  V30 405 H -2.18 12.134 -7.185 0
M  V30 406 H -1.321 12.374 -8.408 0
M  V30 407 O 6.057 5.76 12.491 0
M  V30 408 H 6.308 5.154 11.794 0
M  V30 409 H 5.514 5.237 13.081 0
M  V30 410 O -9.928 -12.073 -15.251 0
M  V30 411 H -10.682 -12.138 -14.664 0
M  V30 412 H -10.008 -11.206 -15.649 0
M  V30 413 O 8.211 -14.167 3.276 0
M  V30 414 H 7.533 -14.788 3.01 0
M  V30 415 H 9 -14.466 2.823 0
M  V30 416 O 4.689 -2.552 13.869 0
M  V30 417 H 4.419 -2.484 14.785 0
M  V30 418 H 5.64 -2.65 13.906 0
M  V30 419 O -0.32 -9.275 3.954 0
M  V30 420 H -0.621 -10.13 4.261 0
M  V30 421 H 0.465 -9.098 4.473 0
M  V30 422 O -11.956 6.461 -3.207 0
M  V30 423 H -11.915 7.383 -3.462 0
M  V30 424 H -11.499 6.425 -2.366 0
M  V30 425 O -2.671 -4.385 14.214 0
M  V30 426 H -2.769 -3.435 14.157 0
M  V30 427 H -3.408 -4.671 14.754 0
M  V30 428 O 8.703 -11.447 12.093 0
M  V30 429 H 8.27 -12.133 11.586 0
M  V30 430 H 8.76 -11.804 12.98 0
M  V30 431 O -5.879 -4.49 15.239 0
M  V30 432 H -6.649 -4.24 15.75 0
M  V30 433 H -5.628 -5.346 15.586 0
M  V30 434 O 8.037 -2.004 -16.689 0
M  V30 435 H 8.481 -2.098 -15.846 0
M  V30 436 H 8.568 -1.369 -17.17 0
M  V30 437 O 0.115 -5.61 7.636 0
M  V30 438 H 0.307 -6.369 8.186 0
M  V30 439 H 0.44 -4.862 8.137 0
M  V30 440 O -10.058 -7.998 -4.155 0
M  V30 441 H -9.25 -8.025 -3.642 0
M  V30 442 H -10.526 -8.796 -3.909 0
M  V30 443 O 1.42 -0.2 16.49 0
M  V30 444 H 2.085 -0.511 17.104 0
M  V30 445 H 1.868 0.465 15.968 0
M  V30 446 O -4.38 4.034 13.15 0
M  V30 447 H -3.939 4.325 12.352 0
M  V30 448 H -5.305 4.223 12.995 0
M  V30 449 O 11.037 2.289 11.804 0
M  V30 450 H 10.196 2.071 12.205 0
M  V30 451 H 11.224 1.552 11.222 0
M  V30 452 O 9.921 -9.176 -3.403 0
M  V30 453 H 10.487 -8.492 -3.046 0
M  V30 454 H 9.046 -8.787 -3.406 0
M  V30 455 O -12.474 0.704 -12.73 0
M  V30 456 H -12.044 0.257 -13.459 0
M  V30 457 H -13.08 1.316 -13.148 0
M  V30 458 O 5.991 13.212 1.59 0
M  V30 459 H 5.471 12.649 1.017 0
M  V30 460 H 6.336 12.621 2.26 0
M  V30 461 O 1.62 13.124 10.807 0
M  V30 462 H 2.328 13.058 11.447 0
M  V30 463 H 1.36 12.217 10.642 0
M  V30 464 O -13.772 -11.623 0.225 0
M  V30 465 H -14.212 -11.455 -0.607 0
M  V30 466 H -13.648 -10.756 0.611 0
M  V30 467 O -11.611 -12.562 -9.19 0
M  V30 468 H -12.273 -11.92 -8.934 0
M  V30 469 H -10.879 -12.037 -9.512 0
M  V30 470 O -5.849 -14.858 5.46 0
M  V30 471 H -6.669 -15.345 5.37 0
M  V30 472 H -5.939 -14.123 4.853 0
M  V30 473 O -0.687 -9.557 -11.37 0
M  V30 474 H -1.365 -10.228 -11.289 0
M  V30 475 H -0.934 -8.887 -10.733 0
M  V30 476 O -5.47 10.951 2.374 0
M  V30 477 H -5.577 10.569 1.503 0
M  V30 478 H -4.616 10.638 2.67 0
M  V30 479 O 13.462 -3.637 -3.212 0
M  V30 480 H 14.051 -3.898 -2.503 0
M  V30 481 H 12.585 -3.817 -2.874 0
M  V30 482 O 0.782 6.54 12.475 0
M  V30 483 H 0.112 6.208 13.072 0
M  V30 484 H 0.555 7.461 12.347 0
M  V30 485 O -15.346 1.231 -2.469 0
M  V30 486 H -15.388 2.129 -2.138 0
M  V30 487 H -16.024 1.192 -3.143 0
M  V30 488 O -13.721 -7.107 -12.856 0
M  V30 489 H -14.198 -7.399 -13.633 0
M  V30 490 H -14.405 -6.862 -12.233 0
M  V30 491 O -12.181 14.055 -8.984 0
M  V30 492 H -12.693 13.961 -8.181 0
M  V30 493 H -12.834 14.082 -9.684 0
M  V30 494 O 8.445 6.157 13.89 0
M  V30 495 H 7.863 6.69 14.432 0
M  V30 496 H 7.978 6.061 13.06 0
M  V30 497 O 11.564 7.314 -6.951 0
M  V30 498 H 12.387 7.691 -7.262 0
M  V30 499 H 11.566 7.478 -6.008 0
M  V30 500 O 12.133 -11.218 -6.377 0
M  V30 501 H 12.156 -12.113 -6.039 0
M  V30 502 H 12.934 -10.814 -6.043 0
M  V30 503 O -12.495 5.309 5.851 0
M  V30 504 H -11.737 5.403 6.428 0
M  V30 505 H -12.516 6.123 5.348 0
M  V30 506 O -2.689 -2.663 -16.194 0
M  V30 507 H -3.6 -2.443 -16.388 0
M  V30 508 H -2.289 -1.831 -15.942 0
M  V30 509 O -9.59 -3.791 7.757 0
M  V30 510 H -9.179 -4.616 8.013 0
M  V30 511 H -9.867 -3.931 6.852 0
M  V30 512 O 6.444 11.101 -10.684 0
M  V30 513 H 5.955 11.3 -11.482 0
M  V30 514 H 5.981 10.358 -10.297 0
M  V30 515 O -13.081 8.984 -6.979 0
M  V30 516 H -13.374 8.09 -7.157 0
M  V30 517 H -12.888 8.991 -6.041 0
M  V30 518 O 2.063 -0.59 -12.568 0
M  V30 519 H 2.164 -0.83 -11.646 0
M  V30 520 H 1.302 -1.089 -12.864 0
M  V30 521 O 5.129 3.437 -12.238 0
M  V30 522 H 5.169 3.659 -11.308 0
M  V30 523 H 4.404 3.961 -12.579 0
M  V30 524 O 0.948 15.438 8.862 0
M  V30 525 H 1.346 15.026 8.096 0
M  V30 526 H 1.665 15.519 9.491 0
M  V30 527 O -2.489 10.592 9.249 0
M  V30 528 H -2.095 10.924 8.442 0
M  V30 529 H -2.832 9.731 9.012 0
M  V30 530 O -1.516 15.372 -7.367 0
M  V30 531 H -2.303 14.908 -7.653 0
M  V30 532 H -1.846 16.139 -6.899 0
M  V30 533 O -12.51 -8.371 16.014 0
M  V30 534 H -12.904 -7.534 15.769 0
M  V30 535 H -12.971 -8.629 16.812 0
M  V30 536 O -0.035 1.375 -10.257 0
M  V30 537 H 0.068 1.906 -9.468 0
M  V30 538 H 0.253 0.5 -9.997 0
M  V30 539 O 1.164 -5.146 10.284 0
M  V30 540 H 0.677 -5.674 10.917 0
M  V30 541 H 1.647 -4.516 10.818 0
M  V30 542 O 12.417 4.938 9.244 0
M  V30 543 H 11.951 5.601 9.754 0
M  V30 544 H 13.339 5.182 9.318 0
M  V30 545 O -16.196 4.446 -2.974 0
M  V30 546 H -16.916 4.75 -3.527 0
M  V30 547 H -15.433 4.448 -3.551 0
M  V30 548 O 10.697 3.871 7.576 0
M  V30 549 H 10.058 3.678 8.262 0
M  V30 550 H 11.537 3.908 8.033 0
M  V30 551 O 15.239 7.786 -1.051 0
M  V30 552 H 14.95 8.259 -1.831 0
M  V30 553 H 16.047 8.227 -0.788 0
M  V30 554 O 15.634 -5.881 -7.876 0
M  V30 555 H 15.143 -6.596 -8.281 0
M  V30 556 H 15.273 -5.812 -6.993 0
M  V30 557 O 10.193 -10.672 -15.673 0
M  V30 558 H 10.015 -11.612 -15.649 0
M  V30 559 H 10.126 -10.439 -16.599 0
M  V30 560 O 4.066 -5.534 -11.595 0
M  V30 561 H 3.164 -5.803 -11.772 0
M  V30 562 H 4.135 -5.541 -10.64 0
M  V30 563 O 2.891 -3.695 12.008 0
M  V30 564 H 3.316 -3.326 12.782 0
M  V30 565 H 2.118 -4.144 12.35 0
M  V30 566 O 8.594 -5.051 12.147 0
M  V30 567 H 9.142 -4.38 11.739 0
M  V30 568 H 8.092 -5.424 11.422 0
M  V30 569 O -14.793 15.589 0.488 0
M  V30 570 H -14.445 14.729 0.722 0
M  V30 571 H -14.217 15.9 -0.21 0
M  V30 572 O -5.79 -10.312 5.894 0
M  V30 573 H -5.898 -9.395 5.641 0
M  V30 574 H -6.209 -10.805 5.189 0
M  V30 575 O 8.57 5.737 -11.523 0
M  V30 576 H 8.157 5.574 -10.675 0
M  V30 577 H 7.841 5.931 -12.112 0
M  V30 578 O 17.358 -4.101 -9.271 0
M  V30 579 H 16.627 -3.772 -9.795 0
M  V30 580 H 16.958 -4.726 -8.667 0
M  V30 581 O 8.672 -16.615 6.608 0
M  V30 582 H 8.962 -17.222 5.927 0
M  V30 583 H 9.106 -15.789 6.394 0
M  V30 584 O -0.597 16.895 -10 0
M  V30 585 H -0.857 16.376 -9.238 0
M  V30 586 H -1.418 17.249 -10.341 0
M  V30 587 O -2.936 -11.05 -3.292 0
M  V30 588 H -3.646 -11.058 -2.649 0
M  V30 589 H -3.346 -11.346 -4.105 0
M  V30 590 O 6.716 -2.998 -13.94 0
M  V30 591 H 6.543 -2.877 -13.007 0
M  V30 592 H 6.544 -2.139 -14.328 0
M  V30 593 O 6.223 -9.424 9.507 0
M  V30 594 H 6.308 -9.433 10.461 0
M  V30 595 H 6.313 -8.502 9.267 0
M  V30 596 O 8.62 14.571 -2.213 0
M  V30 597 H 9.223 14.625 -2.953 0
M  V30 598 H 8.762 13.697 -1.851 0
M  V30 599 O 11.195 -4.891 -1.848 0
M  V30 600 H 10.268 -5.099 -1.733 0
M  V30 601 H 11.551 -5.637 -2.33 0
M  V30 602 O -10.213 -5.097 1.849 0
M  V30 603 H -9.43 -5.323 1.346 0
M  V30 604 H -10.088 -4.179 2.089 0
M  V30 605 O -4.684 14.193 -7.484 0
M  V30 606 H -4.485 13.497 -6.859 0
M  V30 607 H -5.621 14.355 -7.373 0
M  V30 608 O 4.464 -0.834 9.444 0
M  V30 609 H 4.595 -0.557 10.351 0
M  V30 610 H 3.589 -0.516 9.22 0
M  V30 611 O -3.534 1.241 12.198 0
M  V30 612 H -4.481 1.23 12.055 0
M  V30 613 H -3.386 2.001 12.76 0
M  V30 614 O 15.658 -15.894 -11.222 0
M  V30 615 H 15.336 -16.646 -11.718 0
M  V30 616 H 15.152 -15.908 -10.409 0
M  V30 617 O -2.227 15.927 2.127 0
M  V30 618 H -1.45 15.421 2.364 0
M  V30 619 H -1.93 16.509 1.427 0
M  V30 620 O 3.696 -5.849 3.51 0
M  V30 621 H 4.552 -5.957 3.096 0
M  V30 622 H 3.817 -6.175 4.401 0
M  V30 623 O -9.171 -12.914 15.294 0
M  V30 624 H -9.417 -12.593 16.162 0
M  V30 625 H -9.914 -13.449 15.017 0
M  V30 626 O -2.069 -6.365 12.232 0
M  V30 627 H -2.221 -5.559 12.725 0
M  V30 628 H -1.158 -6.302 11.945 0
M  V30 629 O 8.071 -4.432 -3.938 0
M  V30 630 H 8.579 -3.645 -4.133 0
M  V30 631 H 7.938 -4.848 -4.789 0
M  V30 632 O -10.945 -15.237 15.514 0
M  V30 633 H -11.369 -15.422 14.676 0
M  V30 634 H -10.352 -15.975 15.652 0
M  V30 635 O 14.248 1.543 -13.679 0
M  V30 636 H 14.864 1.692 -12.962 0
M  V30 637 H 14.735 1.784 -14.467 0
M  V30 638 O -14.776 -13.856 5.949 0
M  V30 639 H -15.629 -13.463 5.763 0
M  V30 640 H -14.284 -13.757 5.134 0
M  V30 641 O -14.425 7.133 13.169 0
M  V30 642 H -14.299 7.817 12.512 0
M  V30 643 H -14.835 7.582 13.908 0
M  V30 644 O 10.967 -5.619 -13.428 0
M  V30 645 H 10.135 -5.772 -13.877 0
M  V30 646 H 11.527 -5.217 -14.092 0
M  V30 647 O 2.459 10.395 9.936 0
M  V30 648 H 3.238 10.568 10.465 0
M  V30 649 H 2.618 9.535 9.548 0
M  V30 650 O 9.727 -8.878 11.238 0
M  V30 651 H 9.122 -9.447 10.762 0
M  V30 652 H 9.174 -8.41 11.865 0
M  V30 653 O -12.194 -2.847 0.588 0
M  V30 654 H -11.995 -2.327 -0.191 0
M  V30 655 H -13.058 -3.22 0.413 0
M  V30 656 O 5.859 -8.812 -11.488 0
M  V30 657 H 5.189 -8.833 -10.805 0
M  V30 658 H 5.374 -8.935 -12.304 0
M  V30 659 O 11.939 1.426 1.702 0
M  V30 660 H 11.543 2.286 1.842 0
M  V30 661 H 12.549 1.557 0.976 0
M  V30 662 O -12.693 -2.94 16.304 0
M  V30 663 H -11.939 -2.955 15.715 0
M  V30 664 H -12.809 -3.853 16.57 0
M  V30 665 O 7.994 12.106 3.851 0
M  V30 666 H 7.401 12.828 4.059 0
M  V30 667 H 7.974 11.548 4.629 0
M  V30 668 O 6.666 15.704 -4.98 0
M  V30 669 H 6.298 16.586 -5.039 0
M  V30 670 H 7.614 15.837 -5.006 0
M  V30 671 O -15.245 -13.613 -13.584 0
M  V30 672 H -14.678 -12.992 -14.04 0
M  V30 673 H -16.134 -13.324 -13.792 0
M  V30 674 O 4.4 -0.113 -1.591 0
M  V30 675 H 3.85 -0.895 -1.634 0
M  V30 676 H 3.861 0.534 -1.136 0
M  V30 677 O -12.411 -0.959 -10.446 0
M  V30 678 H -13.125 -1.561 -10.656 0
M  V30 679 H -12.298 -0.435 -11.24 0
M  V30 680 O 13.699 -10.64 -12.703 0
M  V30 681 H 13.034 -9.959 -12.604 0
M  V30 682 H 14.27 -10.53 -11.942 0
M  V30 683 O -10.544 -3.154 -10.18 0
M  V30 684 H -9.647 -2.932 -9.929 0
M  V30 685 H -10.993 -2.311 -10.236 0
M  V30 686 O -7.01 1.838 -10.82 0
M  V30 687 H -6.835 1.762 -9.882 0
M  V30 688 H -6.277 1.385 -11.238 0
M  V30 689 O 13.985 7.802 -8.877 0
M  V30 690 H 14.028 8.737 -9.079 0
M  V30 691 H 13.447 7.43 -9.576 0
M  V30 692 O -9.971 -15.746 -11.037 0
M  V30 693 H -9.255 -16.363 -11.189 0
M  V30 694 H -9.742 -14.979 -11.562 0
M  V30 695 O 3.427 3.658 -16.094 0
M  V30 696 H 3.163 2.852 -16.539 0
M  V30 697 H 3.063 3.575 -15.213 0
M  V30 698 O -13.65 16.854 -5.763 0
M  V30 699 H -13.777 16.136 -6.384 0
M  V30 700 H -12.789 16.688 -5.378 0
M  V30 701 O -5.608 -12.249 -11.042 0
M  V30 702 H -5.691 -11.358 -10.702 0
M  V30 703 H -5.264 -12.137 -11.928 0
M  V30 704 O -9.995 -2.761 -6.693 0
M  V30 705 H -9.833 -2.908 -7.625 0
M  V30 706 H -9.414 -2.036 -6.46 0
M  V30 707 O -1.279 -5.264 2.994 0
M  V30 708 H -1.423 -5.287 3.941 0
M  V30 709 H -0.423 -4.848 2.891 0
M  V30 710 O 6.426 10.107 14.374 0
M  V30 711 H 6.444 9.15 14.373 0
M  V30 712 H 6.934 10.357 13.603 0
M  V30 713 O -13.331 -5.202 -15.759 0
M  V30 714 H -13.489 -5.809 -16.482 0
M  V30 715 H -14.204 -4.98 -15.436 0
M  V30 716 O 6.902 -15.238 -4.163 0
M  V30 717 H 7.836 -15.332 -4.349 0
M  V30 718 H 6.859 -15.082 -3.22 0
M  V30 719 O -3.779 4.145 6.873 0
M  V30 720 H -4.378 3.443 7.129 0
M  V30 721 H -3.629 4.639 7.679 0
M  V30 722 O -3.001 10.654 3.452 0
M  V30 723 H -3.28 11.453 3.899 0
M  V30 724 H -2.473 10.963 2.716 0
M  V30 725 O 8.498 -8.277 -11.771 0
M  V30 726 H 8.427 -7.326 -11.687 0
M  V30 727 H 7.591 -8.584 -11.789 0
M  V30 728 O -7.523 7.276 9.416 0
M  V30 729 H -7.091 6.478 9.112 0
M  V30 730 H -7.624 7.149 10.36 0
M  V30 731 O -16.961 0.121 -8.819 0
M  V30 732 H -17.539 -0.642 -8.79 0
M  V30 733 H -16.224 -0.116 -8.257 0
M  V30 734 O 3.97 7.485 -1.683 0
M  V30 735 H 4.711 7.38 -2.279 0
M  V30 736 H 4.362 7.485 -0.81 0
M  V30 737 O 1.584 5.509 10.004 0
M  V30 738 H 0.756 5.739 9.582 0
M  V30 739 H 1.375 5.476 10.938 0
M  V30 740 O 15.256 -10.336 -10.222 0
M  V30 741 H 15.747 -11.047 -9.809 0
M  V30 742 H 14.564 -10.127 -9.595 0
M  V30 743 O 3.697 -14.536 3.122 0
M  V30 744 H 3.388 -15.267 3.657 0
M  V30 745 H 4.174 -13.976 3.734 0
M  V30 746 O -4.926 9.306 -14.522 0
M  V30 747 H -4.819 8.373 -14.706 0
M  V30 748 H -4.805 9.733 -15.37 0
M  V30 749 O 7.883 -15.576 -10.355 0
M  V30 750 H 7.85 -16.14 -9.583 0
M  V30 751 H 8.364 -14.801 -10.066 0
M  V30 752 O 0.46 -1.963 1.592 0
M  V30 753 H 1.184 -2.506 1.904 0
M  V30 754 H 0.155 -2.402 0.798 0
M  V30 755 O 5.427 -12.206 11.737 0
M  V30 756 H 5.706 -11.45 12.253 0
M  V30 757 H 4.541 -11.987 11.449 0
M  V30 758 O 2.791 4.912 -12.846 0
M  V30 759 H 2.396 4.157 -13.282 0
M  V30 760 H 2.457 4.874 -11.95 0
M  V30 761 O 11.321 16.709 -16.245 0
M  V30 762 H 10.546 16.374 -15.794 0
M  V30 763 H 11.764 15.928 -16.575 0
M  V30 764 O -3.592 -7.157 -9.934 0
M  V30 765 H -4.044 -6.685 -10.634 0
M  V30 766 H -4.134 -7.013 -9.158 0
M  V30 767 O 11.69 0.304 14.627 0
M  V30 768 H 11.714 0.367 15.582 0
M  V30 769 H 12.313 0.966 14.328 0
M  V30 770 O 13.98 16.504 3.709 0
M  V30 771 H 13.581 16.747 4.544 0
M  V30 772 H 14.755 15.997 3.952 0
M  V30 773 O 3.75 -10.246 10.243 0
M  V30 774 H 4.644 -9.906 10.282 0
M  V30 775 H 3.307 -9.683 9.607 0
M  V30 776 O 5.031 -15.218 -11.504 0
M  V30 777 H 5.75 -15.271 -10.874 0
M  V30 778 H 5.309 -14.548 -12.129 0
M  V30 779 O -4.861 -7.567 -6.433 0
M  V30 780 H -5.122 -7.353 -5.537 0
M  V30 781 H -5.386 -6.984 -6.981 0
M  V30 782 O 13.522 -1.126 -4.929 0
M  V30 783 H 12.763 -1.703 -4.852 0
M  V30 784 H 14.118 -1.42 -4.24 0
M  V30 785 O 6.206 12.351 -14.036 0
M  V30 786 H 5.881 13.212 -13.771 0
M  V30 787 H 5.491 11.75 -13.828 0
M  V30 788 O 10.437 -15.271 1.976 0
M  V30 789 H 11.036 -15.444 2.703 0
M  V30 790 H 10.469 -16.067 1.445 0
M  V30 791 O -8 7.826 -12.717 0
M  V30 792 H -7.428 7.212 -12.257 0
M  V30 793 H -8.23 8.48 -12.057 0
M  V30 794 O 14.428 10.853 12.776 0
M  V30 795 H 15.072 10.179 12.561 0
M  V30 796 H 13.688 10.37 13.144 0
M  V30 797 O -2.976 -3.619 -11.654 0
M  V30 798 H -3.626 -3.028 -12.036 0
M  V30 799 H -3.38 -3.927 -10.843 0
M  V30 800 O -12.254 -4.812 9.354 0
M  V30 801 H -11.861 -5.418 9.981 0
M  V30 802 H -11.529 -4.551 8.786 0
M  V30 803 O -15.148 -2.688 1.031 0
M  V30 804 H -14.756 -1.817 1.091 0
M  V30 805 H -16.035 -2.577 1.372 0
M  V30 806 O -5.294 -14.547 11.814 0
M  V30 807 H -4.473 -14.055 11.793 0
M  V30 808 H -5.053 -15.402 12.17 0
M  V30 809 O 2.56 11.452 -5.687 0
M  V30 810 H 2.55 11.122 -6.586 0
M  V30 811 H 3.185 10.888 -5.232 0
M  V30 812 O -13.227 -0.352 -1.51 0
M  V30 813 H -13.471 -1.155 -1.972 0
M  V30 814 H -13.725 0.338 -1.949 0
M  V30 815 O -7.436 4.715 5.778 0
M  V30 816 H -7.335 4.054 5.093 0
M  V30 817 H -6.991 5.489 5.432 0
M  V30 818 O 5.623 -13.288 5.371 0
M  V30 819 H 6.381 -13.437 4.805 0
M  V30 820 H 5.991 -13.228 6.252 0
M  V30 821 O -5.173 -1.992 7.216 0
M  V30 822 H -5.764 -1.258 7.043 0
M  V30 823 H -5.609 -2.748 6.823 0
M  V30 824 O 1.969 4.075 5.287 0
M  V30 825 H 1.636 4.406 4.453 0
M  V30 826 H 1.202 4.051 5.859 0
M  V30 827 O 14.478 -7.4 -14.567 0
M  V30 828 H 14.567 -8.316 -14.831 0
M  V30 829 H 13.884 -7.02 -15.215 0
M  V30 830 O 1.204 12.324 7.844 0
M  V30 831 H 1.722 11.965 8.564 0
M  V30 832 H 0.465 12.756 8.272 0
M  V30 833 O 13.591 -5.741 5.441 0
M  V30 834 H 14.24 -5.585 6.126 0
M  V30 835 H 13.502 -6.693 5.405 0
M  V30 836 O -0.214 3.235 -15.682 0
M  V30 837 H -0.388 2.566 -15.02 0
M  V30 838 H -0.967 3.191 -16.271 0
M  V30 839 O -6.215 -11.248 14.459 0
M  V30 840 H -6.335 -11.592 13.574 0
M  V30 841 H -7.054 -10.843 14.676 0
M  V30 842 O -2.462 -7.146 1.415 0
M  V30 843 H -1.871 -7.5 0.75 0
M  V30 844 H -1.998 -6.389 1.77 0
M  V30 845 O -6.738 1.553 -4.192 0
M  V30 846 H -6.622 2.44 -4.533 0
M  V30 847 H -7.682 1.47 -4.056 0
M  V30 848 O 15.886 14.96 13.458 0
M  V30 849 H 15.82 15.221 12.539 0
M  V30 850 H 16.291 15.711 13.891 0
M  V30 851 O -7.666 -6.078 8.414 0
M  V30 852 H -6.731 -5.951 8.577 0
M  V30 853 H -7.736 -6.981 8.105 0
M  V30 854 O 15.245 5.425 8.03 0
M  V30 855 H 15.749 5.208 8.815 0
M  V30 856 H 15.906 5.568 7.352 0
M  V30 857 O 8.72 12.355 8.651 0
M  V30 858 H 9.122 11.654 9.163 0
M  V30 859 H 9.095 13.16 9.008 0
M  V30 860 O 8.528 -10.762 15.012 0
M  V30 861 H 7.605 -10.558 14.866 0
M  V30 862 H 8.518 -11.52 15.595 0
M  V30 863 O 11.288 9.882 11.1 0
M  V30 864 H 11.62 10.689 10.707 0
M  V30 865 H 11.607 9.906 12.002 0
M  V30 866 O 7.303 1.653 16.938 0
M  V30 867 H 6.678 1.302 16.303 0
M  V30 868 H 7.759 2.35 16.466 0
M  V30 869 O 1.776 10.528 -8.126 0
M  V30 870 H 1.56 9.626 -8.362 0
M  V30 871 H 0.949 11.003 -8.216 0
M  V30 872 O 1.742 -10.473 -15.94 0
M  V30 873 H 2.147 -11.279 -16.261 0
M  V30 874 H 2.472 -9.96 -15.592 0
M  V30 875 O -0.105 5.755 -6.952 0
M  V30 876 H 0.79 5.469 -7.135 0
M  V30 877 H -0.11 5.94 -6.012 0
M  V30 878 O 6.808 7.203 6.469 0
M  V30 879 H 6.32 7.319 5.654 0
M  V30 880 H 6.155 7.325 7.159 0
M  V30 881 O -16.125 8.636 -13.592 0
M  V30 882 H -16.889 8.643 -13.016 0
M  V30 883 H -15.558 9.326 -13.247 0
M  V30 884 O 15.763 3.864 -9.692 0
M  V30 885 H 16.1 4.716 -9.416 0
M  V30 886 H 14.816 3.991 -9.758 0
M  V30 887 O -3.3 15.4 -15.527 0
M  V30 888 H -3.783 14.777 -14.983 0
M  V30 889 H -2.981 14.879 -16.263 0
M  V30 890 O 16.625 3.798 2.893 0
M  V30 891 H 17.375 3.727 3.484 0
M  V30 892 H 17.004 4.072 2.057 0
M  V30 893 O 16.173 15.419 0.322 0
M  V30 894 H 17.108 15.431 0.12 0
M  V30 895 H 15.951 14.49 0.377 0
M  V30 896 O 6.656 -10.568 -2.604 0
M  V30 897 H 7.011 -9.822 -3.088 0
M  V30 898 H 5.926 -10.204 -2.104 0
M  V30 899 O -1.83 0.722 7.207 0
M  V30 900 H -2.577 0.708 6.609 0
M  V30 901 H -1.43 -0.142 7.111 0
M  V30 902 O -15.275 2.368 -8.46 0
M  V30 903 H -16.005 1.76 -8.57 0
M  V30 904 H -15.019 2.6 -9.353 0
M  V30 905 O -12.166 7.404 -10.093 0
M  V30 906 H -11.921 7.321 -9.171 0
M  V30 907 H -12.051 6.524 -10.451 0
M  V30 908 O -9.806 14.994 -2.47 0
M  V30 909 H -10.197 14.199 -2.833 0
M  V30 910 H -9.031 15.148 -3.01 0
M  V30 911 O 5.261 6.428 -8.306 0
M  V30 912 H 4.555 6.768 -7.757 0
M  V30 913 H 6.062 6.646 -7.829 0
M  V30 914 O 1.94 -15.28 -3.369 0
M  V30 915 H 2.662 -14.992 -3.928 0
M  V30 916 H 2.074 -14.813 -2.544 0
M  V30 917 O 14.849 2.635 -16.387 0
M  V30 918 H 14.457 3.074 -17.142 0
M  V30 919 H 15.335 3.325 -15.935 0
M  V30 920 O -8.296 3.971 -12.463 0
M  V30 921 H -7.655 4.647 -12.243 0
M  V30 922 H -8.225 3.333 -11.753 0
M  V30 923 O -15.118 15.622 -14.913 0
M  V30 924 H -14.764 16.492 -14.729 0
M  V30 925 H -14.508 15.244 -15.546 0
M  V30 926 O 11.406 14.727 -3.961 0
M  V30 927 H 11.428 14.581 -3.015 0
M  V30 928 H 11.699 13.899 -4.339 0
M  V30 929 O 11.639 9.954 -10.929 0
M  V30 930 H 12.551 10.08 -10.664 0
M  V30 931 H 11.619 9.074 -11.306 0
M  V30 932 O 9.433 -0.515 9.037 0
M  V30 933 H 10.324 -0.326 9.332 0
M  V30 934 H 9.495 -0.531 8.082 0
M  V30 935 O 1.573 -13.626 -11.494 0
M  V30 936 H 0.656 -13.46 -11.712 0
M  V30 937 H 2.066 -13.238 -12.217 0
M  V30 938 O -12.574 9.418 15.52 0
M  V30 939 H -13.102 9.663 16.28 0
M  V30 940 H -11.793 9.968 15.583 0
M  V30 941 O -5.343 -1.596 -4.432 0
M  V30 942 H -5.808 -1.124 -3.741 0
M  V30 943 H -4.463 -1.218 -4.429 0
M  V30 944 O 4.009 -1.214 6.078 0
M  V30 945 H 4.185 -1.53 5.191 0
M  V30 946 H 3.958 -0.262 5.987 0
M  V30 947 O 0.736 12.089 -1.224 0
M  V30 948 H 0.264 12.775 -0.752 0
M  V30 949 H 0.049 11.538 -1.598 0
M  V30 950 O 5.349 12.472 6.85 0
M  V30 951 H 5.073 13.327 7.182 0
M  V30 952 H 4.602 11.897 7.018 0
M  V30 953 O 5.869 -5.915 13.452 0
M  V30 954 H 5.776 -5.024 13.115 0
M  V30 955 H 6.802 -6.002 13.648 0
M  V30 956 O 6.183 13.973 4.607 0
M  V30 957 H 5.338 14.167 4.202 0
M  V30 958 H 5.968 13.427 5.363 0
M  V30 959 O -16.672 -0.695 12.947 0
M  V30 960 H -15.867 -0.723 12.429 0
M  V30 961 H -17.172 0.031 12.574 0
M  V30 962 O -10.031 4.657 -8.702 0
M  V30 963 H -9.123 4.838 -8.462 0
M  V30 964 H -10.302 3.959 -8.106 0
M  V30 965 O 14.025 12.698 3.143 0
M  V30 966 H 13.47 12.089 2.656 0
M  V30 967 H 14.798 12.813 2.59 0
M  V30 968 O -1.143 14.07 -0.236 0
M  V30 969 H -1.1 14.19 -1.185 0
M  V30 970 H -0.996 14.945 0.123 0
M  V30 971 O -5.029 10.336 -11.75 0
M  V30 972 H -4.647 11.202 -11.889 0
M  V30 973 H -4.997 9.919 -12.611 0
M  V30 974 O -7.804 -8.711 7.959 0
M  V30 975 H -7.807 -9.19 8.788 0
M  V30 976 H -7.339 -9.286 7.351 0
M  V30 977 O 9.09 -0.669 14.359 0
M  V30 978 H 8.755 -0.033 13.727 0
M  V30 979 H 10.019 -0.455 14.445 0
M  V30 980 O -3.451 16.874 -5.648 0
M  V30 981 H -3.881 16.064 -5.373 0
M  V30 982 H -4.168 17.492 -5.785 0
M  V30 983 O 11.896 -1.678 6.931 0
M  V30 984 H 11.572 -0.955 6.394 0
M  V30 985 H 12.845 -1.556 6.95 0
M  V30 986 O 1.135 10.483 -15.073 0
M  V30 987 H 1.27 9.62 -15.464 0
M  V30 988 H 1.878 11.004 -15.377 0
M  V30 989 O 13.015 4.201 -9.721 0
M  V30 990 H 12.472 4.049 -10.495 0
M  V30 991 H 12.4 4.502 -9.052 0
M  V30 992 O 16.274 16.23 -7.514 0
M  V30 993 H 16.804 16.547 -8.245 0
M  V30 994 H 16.91 16.025 -6.828 0
M  V30 995 O -8.135 -5.007 -9.268 0
M  V30 996 H -8.397 -5.05 -10.188 0
M  V30 997 H -8.166 -4.074 -9.054 0
M  V30 998 O -15.959 -15.825 1.509 0
M  V30 999 H -15.834 -16.75 1.723 0
M  V30 1000 H -16.833 -15.618 1.841 0
M  V30 1001 O -10.04 3.988 -4.628 0
M  V30 1002 H -10.185 3.328 -5.305 0
M  V30 1003 H -9.475 3.556 -3.988 0
M  V30 1004 O 10.691 -2.871 -7.482 0
M  V30 1005 H 10.413 -3.231 -8.325 0
M  V30 1006 H 11.541 -3.278 -7.317 0
M  V30 1007 O -0.575 5.5 -4.242 0
M  V30 1008 H -0.877 4.599 -4.36 0
M  V30 1009 H -1.377 6.009 -4.123 0
M  V30 1010 O 7.457 -3.094 13.656 0
M  V30 1011 H 8.124 -2.452 13.901 0
M  V30 1012 H 7.921 -3.931 13.649 0
M  V30 1013 O 8.499 1.354 12.882 0
M  V30 1014 H 7.885 1.663 12.216 0
M  V30 1015 H 8.479 2.03 13.56 0
M  V30 1016 O -15.737 -6.015 -6.907 0
M  V30 1017 H -16.683 -5.895 -6.988 0
M  V30 1018 H -15.591 -6.933 -7.138 0
M  V30 1019 O -9.315 16.308 16.219 0
M  V30 1020 H -9.719 15.5 16.536 0
M  V30 1021 H -9.064 16.113 15.316 0
M  V30 1022 O -14.594 15.076 5.989 0
M  V30 1023 H -15.156 14.341 6.234 0
M  V30 1024 H -14.91 15.342 5.125 0
M  V30 1025 O 0.489 -4.652 13.267 0
M  V30 1026 H 0.684 -5.39 13.845 0
M  V30 1027 H 0.549 -3.882 13.832 0
M  V30 1028 O 10.785 4.746 -8.099 0
M  V30 1029 H 10.057 4.264 -7.707 0
M  V30 1030 H 11.034 5.388 -7.434 0
M  V30 1031 O 13.16 9.928 7.167 0
M  V30 1032 H 13.818 10.421 6.678 0
M  V30 1033 H 13.621 9.621 7.948 0
M  V30 1034 O -7.65 -16.646 -15.102 0
M  V30 1035 H -8.154 -17.104 -15.775 0
M  V30 1036 H -7.663 -15.728 -15.375 0
M  V30 1037 O -15.719 -9.106 14.039 0
M  V30 1038 H -15.113 -8.734 13.398 0
M  V30 1039 H -15.891 -9.992 13.72 0
M  V30 1040 O 10.606 -4.194 14.878 0
M  V30 1041 H 9.994 -4.887 14.632 0
M  V30 1042 H 11.169 -4.087 14.111 0
M  V30 1043 O 13.157 -1.466 -14.435 0
M  V30 1044 H 12.586 -0.717 -14.608 0
M  V30 1045 H 14.006 -1.207 -14.794 0
M  V30 1046 O -11.341 8.379 12.424 0
M  V30 1047 H -11.239 9.249 12.037 0
M  V30 1048 H -12.252 8.352 12.717 0
M  V30 1049 O 0.293 2.322 11.707 0
M  V30 1050 H -0.499 2.164 11.193 0
M  V30 1051 H -0.01 2.818 12.467 0
M  V30 1052 O -2.873 7.192 -13.987 0
M  V30 1053 H -3.041 7.395 -13.067 0
M  V30 1054 H -1.925 7.284 -14.084 0
M  V30 1055 O -3.61 7.407 -11.25 0
M  V30 1056 H -4.403 7.927 -11.381 0
M  V30 1057 H -3.912 6.618 -10.8 0
M  V30 1058 O 2.904 1.394 5.271 0
M  V30 1059 H 2.709 2.315 5.097 0
M  V30 1060 H 2.249 1.127 5.915 0
M  V30 1061 O -5.237 16.929 -10.583 0
M  V30 1062 H -5.882 17.613 -10.405 0
M  V30 1063 H -5.628 16.404 -11.281 0
M  V30 1064 O 1.867 -13.707 -15.164 0
M  V30 1065 H 2.65 -13.544 -15.689 0
M  V30 1066 H 1.99 -13.176 -14.377 0
M  V30 1067 O 3.709 7.629 -12.911 0
M  V30 1068 H 3.499 6.696 -12.869 0
M  V30 1069 H 3.452 7.972 -12.055 0
M  V30 1070 O 9.648 16.436 -5.162 0
M  V30 1071 H 9.782 17.247 -4.671 0
M  V30 1072 H 10.277 15.821 -4.786 0
M  V30 1073 O -9.607 -4.149 5.069 0
M  V30 1074 H -8.953 -4.606 4.539 0
M  V30 1075 H -9.28 -3.251 5.13 0
M  V30 1076 O 1.894 -12.848 5.998 0
M  V30 1077 H 1.253 -12.395 6.546 0
M  V30 1078 H 2.578 -13.123 6.607 0
M  V30 1079 O -3.828 -12.285 3.035 0
M  V30 1080 H -3.618 -11.871 2.198 0
M  V30 1081 H -4.78 -12.216 3.106 0
M  V30 1082 O -9.145 -15.368 -4.067 0
M  V30 1083 H -8.26 -15.336 -4.432 0
M  V30 1084 H -9.058 -14.984 -3.195 0
M  V30 1085 O -3.131 -3.597 8.011 0
M  V30 1086 H -3.664 -2.932 7.574 0
M  V30 1087 H -2.333 -3.135 8.267 0
M  V30 1088 O 2.784 -3.216 2.724 0
M  V30 1089 H 2.944 -4.067 3.132 0
M  V30 1090 H 3.564 -2.701 2.931 0
M  V30 1091 O 1.569 8.296 -5.014 0
M  V30 1092 H 1.11 8.979 -4.525 0
M  V30 1093 H 1.648 7.569 -4.396 0
M  V30 1094 O -6.616 -14.715 -10.706 0
M  V30 1095 H -6.15 -13.896 -10.879 0
M  V30 1096 H -7.513 -14.545 -10.992 0
M  V30 1097 O -15.766 0.798 15.963 0
M  V30 1098 H -16.22 -0.027 16.139 0
M  V30 1099 H -15.621 1.181 16.828 0
M  V30 1100 O 10.877 14.598 6.524 0
M  V30 1101 H 11.144 13.812 6.046 0
M  V30 1102 H 9.994 14.401 6.836 0
M  V30 1103 O -9.853 -16.937 11.565 0
M  V30 1104 H -9.873 -16.38 10.787 0
M  V30 1105 H -10.564 -17.564 11.429 0
M  V30 1106 O -9.346 12.536 4.924 0
M  V30 1107 H -9.481 13.414 5.281 0
M  V30 1108 H -8.461 12.558 4.56 0
M  V30 1109 O 4.873 6.953 16.505 0
M  V30 1110 H 4.38 7.143 15.708 0
M  V30 1111 H 4.393 7.406 17.199 0
M  V30 1112 O 8.366 -6.687 -2.588 0
M  V30 1113 H 8.584 -5.829 -2.952 0
M  V30 1114 H 7.423 -6.648 -2.429 0
M  V30 1115 O 9.928 -16.929 8.989 0
M  V30 1116 H 9.671 -16.846 8.07 0
M  V30 1117 H 9.981 -16.027 9.306 0
M  V30 1118 O -11.266 10.939 11.438 0
M  V30 1119 H -11.611 11.01 10.548 0
M  V30 1120 H -12.018 11.122 12.002 0
M  V30 1121 O -1.725 16.45 13.527 0
M  V30 1122 H -1.06 16.267 12.864 0
M  V30 1123 H -1.56 17.356 13.788 0
M  V30 1124 O 8.469 8.577 4.056 0
M  V30 1125 H 9.295 8.776 3.615 0
M  V30 1126 H 8.432 9.196 4.786 0
M  V30 1127 O -10.574 -2.318 14.3 0
M  V30 1128 H -10.742 -1.378 14.365 0
M  V30 1129 H -10.809 -2.542 13.399 0
M  V30 1130 O 8.723 -11.189 3.191 0
M  V30 1131 H 7.973 -10.94 2.651 0
M  V30 1132 H 8.57 -12.109 3.405 0
M  V30 1133 O -1.393 -12.577 -6.112 0
M  V30 1134 H -1.268 -12.873 -7.014 0
M  V30 1135 H -1.057 -13.295 -5.576 0
M  V30 1136 O -0.998 11.181 11.421 0
M  V30 1137 H -1.66 10.914 10.784 0
M  V30 1138 H -1.301 12.031 11.74 0
M  V30 1139 O 16.696 -0.144 -1.019 0
M  V30 1140 H 16.77 -0.278 -1.964 0
M  V30 1141 H 17.287 0.585 -0.832 0
M  V30 1142 O -2.893 -9.454 -7.083 0
M  V30 1143 H -3.538 -8.747 -7.105 0
M  V30 1144 H -3.415 -10.256 -7.115 0
M  V30 1145 O -0.212 -4.215 -16.103 0
M  V30 1146 H -1.037 -3.869 -16.442 0
M  V30 1147 H 0.425 -4.041 -16.796 0
M  V30 1148 O -14.526 0.204 1.206 0
M  V30 1149 H -13.826 0.239 0.554 0
M  V30 1150 H -14.989 1.036 1.107 0
M  V30 1151 O 10.064 12.125 -11.963 0
M  V30 1152 H 9.553 12.338 -11.182 0
M  V30 1153 H 10.339 11.218 -11.83 0
M  V30 1154 O 3.885 -9.304 -14.332 0
M  V30 1155 H 3.409 -9.097 -13.528 0
M  V30 1156 H 4.506 -8.583 -14.435 0
M  V30 1157 O 0.559 15.78 5.389 0
M  V30 1158 H -0.342 16.05 5.213 0
M  V30 1159 H 0.798 15.239 4.636 0
M  V30 1160 O 5.875 7.902 3.996 0
M  V30 1161 H 6.787 8.157 3.858 0
M  V30 1162 H 5.385 8.722 3.933 0
M  V30 1163 O 5.373 -9.853 16.179 0
M  V30 1164 H 5.668 -9.59 17.051 0
M  V30 1165 H 5.282 -10.804 16.234 0
M  V30 1166 O -2.524 -10.21 11.135 0
M  V30 1167 H -2.698 -10.193 10.194 0
M  V30 1168 H -1.905 -10.93 11.253 0
M  V30 1169 O 4.945 -10.69 -5.882 0
M  V30 1170 H 4.993 -11.641 -5.982 0
M  V30 1171 H 4.166 -10.436 -6.376 0
M  V30 1172 O -11.972 8.53 7.276 0
M  V30 1173 H -11.399 7.942 7.768 0
M  V30 1174 H -11.946 9.354 7.763 0
M  V30 1175 O -1.993 -17.043 -1.303 0
M  V30 1176 H -2.345 -16.224 -0.954 0
M  V30 1177 H -1.234 -17.233 -0.751 0
M  V30 1178 O -13.788 -3.211 7.451 0
M  V30 1179 H -13.404 -3.281 6.577 0
M  V30 1180 H -13.56 -4.036 7.88 0
M  V30 1181 O -13.8 -9.561 -14.942 0
M  V30 1182 H -13.722 -10.036 -14.114 0
M  V30 1183 H -14.731 -9.351 -15.011 0
M  V30 1184 O 2.213 14.688 0.6 0
M  V30 1185 H 2.749 15.091 -0.083 0
M  V30 1186 H 2.845 14.281 1.192 0
M  V30 1187 O 7.44 -2.903 -8.621 0
M  V30 1188 H 7.206 -2.061 -9.012 0
M  V30 1189 H 7.889 -3.377 -9.321 0
M  V30 1190 O 7.113 -12.357 -10.35 0
M  V30 1191 H 8.045 -12.476 -10.166 0
M  V30 1192 H 6.802 -11.784 -9.649 0
M  V30 1193 O -3.819 12.062 -5.795 0
M  V30 1194 H -3.853 11.125 -5.605 0
M  V30 1195 H -3.547 12.465 -4.97 0
M  V30 1196 O -14.566 9.561 -15.664 0
M  V30 1197 H -14.91 10.451 -15.746 0
M  V30 1198 H -14.721 9.327 -14.749 0
M  V30 1199 O 3.667 -11.352 4.194 0
M  V30 1200 H 4.49 -11.157 4.642 0
M  V30 1201 H 3.202 -11.94 4.789 0
M  V30 1202 O 4.406 15.72 7.678 0
M  V30 1203 H 4.2 16.522 8.159 0
M  V30 1204 H 5.252 15.441 8.028 0
M  V30 1205 O 12.398 9.207 13.808 0
M  V30 1206 H 12.472 8.255 13.744 0
M  V30 1207 H 11.747 9.351 14.495 0
M  V30 1208 O -7.62 -5.557 -15.379 0
M  V30 1209 H -7.686 -6.475 -15.116 0
M  V30 1210 H -8.518 -5.302 -15.589 0
M  V30 1211 O -5.14 -10.174 9.444 0
M  V30 1212 H -5.47 -11.004 9.101 0
M  V30 1213 H -5.797 -9.9 10.084 0
M  V30 1214 O 17.188 13.771 -10.533 0
M  V30 1215 H 16.401 14.051 -10.066 0
M  V30 1216 H 16.931 13.764 -11.455 0
M  V30 1217 O 7.26 16.481 -8.172 0
M  V30 1218 H 8.211 16.428 -8.07 0
M  V30 1219 H 6.996 15.598 -8.43 0
M  V30 1220 O 8.561 5.999 -15.419 0
M  V30 1221 H 8.6 6.497 -16.236 0
M  V30 1222 H 7.954 5.282 -15.604 0
M  V30 1223 O 16.926 -8.368 3.928 0
M  V30 1224 H 16.551 -7.501 4.082 0
M  V30 1225 H 17.122 -8.703 4.803 0
M  V30 1226 O -8.798 15.664 13.676 0
M  V30 1227 H -9.503 15.123 13.321 0
M  V30 1228 H -8.627 16.314 12.995 0
M  V30 1229 O 0.566 7.888 -8.685 0
M  V30 1230 H 0.374 7.125 -8.14 0
M  V30 1231 H -0.26 8.08 -9.129 0
M  V30 1232 O -4.771 7.956 -0.214 0
M  V30 1233 H -4.612 7.296 -0.889 0
M  V30 1234 H -4.528 8.784 -0.627 0
M  V30 1235 O -4.206 -15.266 16.113 0
M  V30 1236 H -3.863 -14.386 16.27 0
M  V30 1237 H -4.105 -15.716 16.951 0
M  V30 1238 O -11.784 9.099 -4.655 0
M  V30 1239 H -11.031 9.233 -4.079 0
M  V30 1240 H -12.445 9.711 -4.333 0
M  V30 1241 O 15.522 -14.961 3.07 0
M  V30 1242 H 15.226 -15.844 3.293 0
M  V30 1243 H 15.781 -14.577 3.907 0
M  V30 1244 O 1.412 -6.144 -11.769 0
M  V30 1245 H 1.088 -5.875 -12.629 0
M  V30 1246 H 0.722 -5.881 -11.16 0
M  V30 1247 O -15.368 13.253 8.378 0
M  V30 1248 H -14.617 13.425 8.945 0
M  V30 1249 H -16.13 13.447 8.924 0
M  V30 1250 O -11.359 0.53 11.333 0
M  V30 1251 H -11.658 1.011 12.105 0
M  V30 1252 H -10.404 0.545 11.396 0
M  V30 1253 O -14.14 10.666 5.608 0
M  V30 1254 H -13.446 11.125 6.081 0
M  V30 1255 H -13.687 9.963 5.14 0
M  V30 1256 O -12.349 -14.6 -0.075 0
M  V30 1257 H -13.028 -14.619 -0.75 0
M  V30 1258 H -11.681 -14.009 -0.423 0
M  V30 1259 O -5.508 -14.484 -2.496 0
M  V30 1260 H -5.717 -13.574 -2.284 0
M  V30 1261 H -4.552 -14.528 -2.45 0
M  V30 1262 O -16.681 9.584 6.259 0
M  V30 1263 H -16.646 9.356 5.33 0
M  V30 1264 H -16.01 10.258 6.365 0
M  V30 1265 O 13.139 13.275 -7.391 0
M  V30 1266 H 13.331 13.668 -8.242 0
M  V30 1267 H 12.24 12.955 -7.472 0
M  V30 1268 O 12.834 -9.993 -8.644 0
M  V30 1269 H 12.545 -10.591 -7.954 0
M  V30 1270 H 12.037 -9.784 -9.13 0
M  V30 1271 O 2.422 -7.675 0.416 0
M  V30 1272 H 2.808 -8.203 1.115 0
M  V30 1273 H 2.954 -6.88 0.393 0
M  V30 1274 O 9.676 11.153 2.012 0
M  V30 1275 H 9.056 11.584 2.601 0
M  V30 1276 H 10.301 10.723 2.596 0
M  V30 1277 O -8.387 10.516 0.319 0
M  V30 1278 H -7.478 10.345 0.073 0
M  V30 1279 H -8.47 11.469 0.285 0
M  V30 1280 O 6.027 -6.897 10.869 0
M  V30 1281 H 5.712 -6.679 11.746 0
M  V30 1282 H 5.448 -6.415 10.279 0
M  V30 1283 O -2.318 -8.738 13.57 0
M  V30 1284 H -2.241 -7.833 13.27 0
M  V30 1285 H -2.118 -9.266 12.797 0
M  V30 1286 O -11.296 5.737 14.243 0
M  V30 1287 H -10.819 6.314 14.84 0
M  V30 1288 H -11.537 6.299 13.507 0
M  V30 1289 O 13.724 -9.51 6.626 0
M  V30 1290 H 13.328 -8.89 7.238 0
M  V30 1291 H 13.376 -10.362 6.888 0
M  V30 1292 O -11.85 11.492 3.347 0
M  V30 1293 H -11.489 10.64 3.103 0
M  V30 1294 H -11.133 11.935 3.802 0
M  V30 1295 O 0.372 -13.705 3.778 0
M  V30 1296 H 1.173 -13.542 4.275 0
M  V30 1297 H -0.298 -13.191 4.229 0
M  V30 1298 O 7.568 -9.229 -14.73 0
M  V30 1299 H 8.399 -9.354 -15.188 0
M  V30 1300 H 7.592 -9.862 -14.013 0
M  V30 1301 O -4.657 -16.376 -14.703 0
M  V30 1302 H -4.343 -17.272 -14.827 0
M  V30 1303 H -5.572 -16.476 -14.444 0
M  V30 1304 O -0.032 -14.741 9.869 0
M  V30 1305 H -0.301 -15.547 10.309 0
M  V30 1306 H -0.416 -14.804 8.995 0
M  V30 1307 O 15.794 -15.064 5.956 0
M  V30 1308 H 14.844 -15.079 6.067 0
M  V30 1309 H 16.054 -14.184 6.228 0
M  V30 1310 O -0.873 11.175 6.184 0
M  V30 1311 H -0.618 11.066 5.268 0
M  V30 1312 H -0.352 11.917 6.492 0
M  V30 1313 O 10.041 -2.49 3.728 0
M  V30 1314 H 10.258 -1.701 4.225 0
M  V30 1315 H 10.519 -2.394 2.904 0
M  V30 1316 O -3.389 -4.214 -8.907 0
M  V30 1317 H -2.96 -4.048 -8.067 0
M  V30 1318 H -4.265 -4.521 -8.672 0
M  V30 1319 O -12.452 16.368 16.513 0
M  V30 1320 H -12.432 17.254 16.153 0
M  V30 1321 H -12.44 15.796 15.745 0
M  V30 1322 O -10.92 -16.701 4.07 0
M  V30 1323 H -11.115 -16.399 4.957 0
M  V30 1324 H -11.334 -16.054 3.499 0
M  V30 1325 O -16.296 -10.575 2.613 0
M  V30 1326 H -15.347 -10.448 2.636 0
M  V30 1327 H -16.659 -9.703 2.767 0
M  V30 1328 O 14.984 -0.178 -16.193 0
M  V30 1329 H 14.873 -0.548 -17.069 0
M  V30 1330 H 15.121 0.757 -16.343 0
M  V30 1331 O -12.664 15.645 2.742 0
M  V30 1332 H -12.181 16.068 2.032 0
M  V30 1333 H -12.373 16.098 3.533 0
M  V30 1334 O 16.477 -13.59 -8.112 0
M  V30 1335 H 17.149 -13.398 -8.766 0
M  V30 1336 H 16.364 -12.767 -7.636 0
M  V30 1337 O 16.384 -15.565 -13.923 0
M  V30 1338 H 16.211 -15.232 -13.042 0
M  V30 1339 H 15.808 -16.324 -14.01 0
M  V30 1340 O 2.094 8.236 16.873 0
M  V30 1341 H 1.78 7.332 16.884 0
M  V30 1342 H 1.814 8.577 16.023 0
M  V30 1343 O -6.03 -8.639 -0.67 0
M  V30 1344 H -5.568 -7.824 -0.472 0
M  V30 1345 H -6.539 -8.441 -1.456 0
M  V30 1346 O -5.65 -5.665 -8.237 0
M  V30 1347 H -5.771 -4.974 -7.587 0
M  V30 1348 H -6.512 -5.769 -8.641 0
M  V30 1349 O -3.543 -7.152 9.847 0
M  V30 1350 H -3.657 -8.031 10.209 0
M  V30 1351 H -2.97 -6.707 10.471 0
M  V30 1352 O 5.267 -2.532 -11.445 0
M  V30 1353 H 4.631 -1.885 -11.749 0
M  V30 1354 H 4.736 -3.278 -11.165 0
M  V30 1355 O 9.816 -6.013 3.24 0
M  V30 1356 H 10.11 -5.474 3.974 0
M  V30 1357 H 9.351 -5.404 2.667 0
M  V30 1358 O 12.117 0.115 9.791 0
M  V30 1359 H 12.453 0.872 9.311 0
M  V30 1360 H 12.772 -0.048 10.47 0
M  V30 1361 O -0.807 -0.102 13.034 0
M  V30 1362 H -1.176 -0.139 12.151 0
M  V30 1363 H -0.486 0.795 13.123 0
M  V30 1364 O 8.174 -11.742 -13.505 0
M  V30 1365 H 8.749 -11.45 -12.798 0
M  V30 1366 H 8.665 -12.438 -13.942 0
M  V30 1367 O -3.117 -13.735 7.336 0
M  V30 1368 H -2.737 -14.613 7.289 0
M  V30 1369 H -3.936 -13.853 7.817 0
M  V30 1370 O 7.388 8.968 -0.603 0
M  V30 1371 H 6.784 8.232 -0.505 0
M  V30 1372 H 6.841 9.745 -0.484 0
M  V30 1373 O 2.076 3.525 -10.537 0
M  V30 1374 H 1.534 2.736 -10.52 0
M  V30 1375 H 1.872 3.974 -9.717 0
M  V30 1376 O -15.435 11.962 16.546 0
M  V30 1377 H -15.478 12.918 16.583 0
M  V30 1378 H -15.995 11.725 15.807 0
M  V30 1379 O 1.112 16.315 -4.869 0
M  V30 1380 H 0.201 16.444 -4.605 0
M  V30 1381 H 1.589 17.025 -4.439 0
M  V30 1382 O 3.845 12.215 -9.64 0
M  V30 1383 H 3.24 11.541 -9.329 0
M  V30 1384 H 4.451 12.347 -8.911 0
M  V30 1385 O 9.94 -15.677 14.873 0
M  V30 1386 H 9.106 -16.138 14.964 0
M  V30 1387 H 10.604 -16.357 14.982 0
M  V30 1388 O -0.981 12.703 -15.014 0
M  V30 1389 H -0.3 12.03 -15.015 0
M  V30 1390 H -0.542 13.488 -14.685 0
M  V30 1391 O 5.815 16.483 10.189 0
M  V30 1392 H 6.073 15.64 9.817 0
M  V30 1393 H 6.547 17.067 9.989 0
M  V30 1394 O -12.267 14.168 14.115 0
M  V30 1395 H -13.067 14.405 13.647 0
M  V30 1396 H -11.656 13.905 13.426 0
M  V30 1397 O -16.723 -5.43 2.708 0
M  V30 1398 H -16.971 -5.437 3.633 0
M  V30 1399 H -15.78 -5.596 2.712 0
M  V30 1400 O -1.093 -13.162 -13.147 0
M  V30 1401 H -1.467 -12.729 -12.38 0
M  V30 1402 H -1.1 -12.49 -13.829 0
M  V30 1403 O -14.408 2.285 -5.606 0
M  V30 1404 H -14.157 3.209 -5.582 0
M  V30 1405 H -14.295 2.029 -6.521 0
M  V30 1406 O 8.443 6.898 8.807 0
M  V30 1407 H 8.113 7.124 7.937 0
M  V30 1408 H 7.663 6.639 9.299 0
M  V30 1409 O -5.137 3.863 -2.919 0
M  V30 1410 H -4.737 3.151 -3.418 0
M  V30 1411 H -4.505 4.58 -2.974 0
M  V30 1412 O 6.398 -1.936 7.779 0
M  V30 1413 H 6.29 -1.039 7.463 0
M  V30 1414 H 5.758 -2.02 8.486 0
M  V30 1415 O -12.413 13.478 1.316 0
M  V30 1416 H -12.174 12.935 2.067 0
M  V30 1417 H -12.499 14.361 1.676 0
M  V30 1418 O -16.072 8.426 15.263 0
M  V30 1419 H -15.401 8.659 15.905 0
M  V30 1420 H -16.68 7.865 15.744 0
M  V30 1421 O -1.347 17.111 -4.223 0
M  V30 1422 H -2.168 16.889 -4.662 0
M  V30 1423 H -1.533 16.991 -3.292 0
M  V30 1424 O 3.768 14.913 5.024 0
M  V30 1425 H 3.646 15.811 4.715 0
M  V30 1426 H 4.112 15.01 5.912 0
M  V30 1427 O -15.636 15.604 3.357 0
M  V30 1428 H -16.089 14.835 3.013 0
M  V30 1429 H -14.832 15.66 2.84 0
M  V30 1430 O 5.418 7.949 8.96 0
M  V30 1431 H 5.572 8.892 8.893 0
M  V30 1432 H 4.473 7.852 8.847 0
M  V30 1433 O -4.134 -11.767 -5.776 0
M  V30 1434 H -3.202 -11.933 -5.913 0
M  V30 1435 H -4.576 -12.438 -6.296 0
M  V30 1436 O -13.831 -15.946 7.664 0
M  V30 1437 H -14.29 -15.217 7.247 0
M  V30 1438 H -14.523 -16.57 7.883 0
M  V30 1439 O 10.465 9.741 7.405 0
M  V30 1440 H 10.776 9.143 6.726 0
M  V30 1441 H 11.262 10.039 7.845 0
M  V30 1442 O 3.872 -14.919 14.242 0
M  V30 1443 H 3.128 -15.465 13.988 0
M  V30 1444 H 4.62 -15.303 13.785 0
M  V30 1445 O 6.576 -11.447 1.615 0
M  V30 1446 H 6.132 -12.188 1.203 0
M  V30 1447 H 5.936 -10.736 1.584 0
M  V30 1448 O 4.874 13.673 -2.756 0
M  V30 1449 H 4.532 14.208 -2.04 0
M  V30 1450 H 5.277 14.302 -3.354 0
M  V30 1451 O -10.899 -11.844 -3.31 0
M  V30 1452 H -11.364 -11.089 -2.95 0
M  V30 1453 H -10.949 -12.507 -2.621 0
M  V30 1454 O -1.947 11.073 0.386 0
M  V30 1455 H -1.655 11.983 0.428 0
M  V30 1456 H -2.395 11.002 -0.456 0
M  V30 1457 O -3.054 -16.612 7.496 0
M  V30 1458 H -2.267 -16.412 6.989 0
M  V30 1459 H -3.737 -16.741 6.837 0
M  V30 1460 O -10.178 6.509 -5.643 0
M  V30 1461 H -10.461 5.669 -5.282 0
M  V30 1462 H -9.721 6.939 -4.92 0
M  V30 1463 O 14.537 -7.544 -1.329 0
M  V30 1464 H 15.029 -7.32 -0.539 0
M  V30 1465 H 13.902 -8.199 -1.038 0
M  V30 1466 O -12.736 1.818 4.945 0
M  V30 1467 H -12.043 1.353 5.414 0
M  V30 1468 H -13.549 1.487 5.328 0
M  V30 1469 O -1.101 15.562 -12.51 0
M  V30 1470 H -0.634 16.06 -11.84 0
M  V30 1471 H -1.545 16.226 -13.037 0
M  V30 1472 O -4.51 15.818 -0.695 0
M  V30 1473 H -3.59 16.019 -0.524 0
M  V30 1474 H -4.818 15.399 0.109 0
M  V30 1475 O 14.618 -1.387 0.116 0
M  V30 1476 H 14.511 -2.211 -0.36 0
M  V30 1477 H 15.47 -1.056 -0.165 0
M  V30 1478 O 6.816 -15.046 8.208 0
M  V30 1479 H 7.633 -15.517 8.042 0
M  V30 1480 H 7.048 -14.385 8.86 0
M  V30 1481 O -4.496 -16.738 13.606 0
M  V30 1482 H -3.646 -17.179 13.602 0
M  V30 1483 H -4.5 -16.232 14.418 0
M  V30 1484 O -16.563 -16.815 -9.53 0
M  V30 1485 H -17.106 -16.308 -10.134 0
M  V30 1486 H -15.745 -16.957 -10.006 0
M  V30 1487 O -3.292 -15.076 -10.316 0
M  V30 1488 H -3.603 -15.963 -10.135 0
M  V30 1489 H -3.713 -14.839 -11.142 0
M  V30 1490 O 8.486 9.56 9.464 0
M  V30 1491 H 9.211 9.545 8.84 0
M  V30 1492 H 8.319 8.639 9.66 0
M  V30 1493 O -5.785 -2.583 -11.986 0
M  V30 1494 H -5.635 -3.269 -12.636 0
M  V30 1495 H -6.728 -2.604 -11.827 0
M  V30 1496 O 14.712 0.991 -3.423 0
M  V30 1497 H 15.251 1.398 -4.101 0
M  V30 1498 H 14.07 0.471 -3.907 0
M  V30 1499 O 8.585 -5.566 -11.241 0
M  V30 1500 H 8.422 -5.559 -12.184 0
M  V30 1501 H 9.332 -4.98 -11.123 0
M  V30 1502 O 4.255 4.771 14.633 0
M  V30 1503 H 3.756 4.066 14.222 0
M  V30 1504 H 4.099 4.661 15.571 0
M  V30 1505 O 5.505 -13.472 -6.646 0
M  V30 1506 H 5.035 -13.265 -7.454 0
M  V30 1507 H 5.536 -14.428 -6.624 0
M  V30 1508 O -3.085 12.695 -3.231 0
M  V30 1509 H -3.162 11.901 -2.702 0
M  V30 1510 H -2.209 13.028 -3.039 0
M  V30 1511 O 14.381 16.093 16.666 0
M  V30 1512 H 15.092 16.631 16.317 0
M  V30 1513 H 14.671 15.191 16.525 0
M  V30 1514 O 2.887 16.333 10.637 0
M  V30 1515 H 3.245 17.14 11.007 0
M  V30 1516 H 3.618 15.716 10.654 0
M  V30 1517 O 1.148 0.844 7.172 0
M  V30 1518 H 1.353 0.514 8.047 0
M  V30 1519 H 0.321 0.42 6.943 0
M  V30 1520 O 5.11 1.822 8.532 0
M  V30 1521 H 4.387 2.364 8.847 0
M  V30 1522 H 4.839 0.925 8.726 0
M  V30 1523 O -3.76 -10.263 15.626 0
M  V30 1524 H -3.378 -9.939 14.811 0
M  V30 1525 H -4.491 -10.814 15.347 0
M  V30 1526 O -5.436 -6.921 -12.406 0
M  V30 1527 H -5.645 -5.992 -12.501 0
M  V30 1528 H -5.191 -7.204 -13.287 0
M  V30 1529 O -7.438 -0.211 6.396 0
M  V30 1530 H -8.06 -0.776 5.939 0
M  V30 1531 H -7.974 0.287 7.013 0
M  V30 1532 O -3.225 -4.704 -5.316 0
M  V30 1533 H -4.167 -4.661 -5.152 0
M  V30 1534 H -2.966 -5.57 -5.001 0
M  V30 1535 O -3.02 -13.309 12.549 0
M  V30 1536 H -2.532 -12.618 12.995 0
M  V30 1537 H -2.566 -14.117 12.787 0
M  V30 1538 O 12.924 -12.479 1.211 0
M  V30 1539 H 12.605 -12.355 2.105 0
M  V30 1540 H 13.873 -12.369 1.278 0
M  V30 1541 O -16.741 6.445 -9.681 0
M  V30 1542 H -16.232 7.239 -9.842 0
M  V30 1543 H -16.357 6.069 -8.889 0
M  V30 1544 O -16.274 -17.05 8.59 0
M  V30 1545 H -16.825 -17.784 8.321 0
M  V30 1546 H -16.882 -16.317 8.692 0
M  V30 1547 O -4.69 10.256 -8.804 0
M  V30 1548 H -4.547 10.586 -9.691 0
M  V30 1549 H -5.248 10.914 -8.389 0
M  V30 1550 O -7.318 -7.768 11.745 0
M  V30 1551 H -7.764 -6.934 11.597 0
M  V30 1552 H -6.667 -7.576 12.42 0
M  V30 1553 O 10.859 10.272 -0.504 0
M  V30 1554 H 10.06 10.792 -0.416 0
M  V30 1555 H 10.969 9.853 0.349 0
M  V30 1556 O 7.285 -14.881 -1.405 0
M  V30 1557 H 7.305 -15.793 -1.115 0
M  V30 1558 H 8.199 -14.598 -1.37 0
M  V30 1559 O -3.229 -12.35 -16.046 0
M  V30 1560 H -2.354 -12.348 -15.658 0
M  V30 1561 H -3.223 -11.614 -16.657 0
M  V30 1562 O 16 -8.131 -3.541 0
M  V30 1563 H 16.402 -8.949 -3.248 0
M  V30 1564 H 15.519 -7.812 -2.778 0
M  V30 1565 O -4.708 13.309 14.675 0
M  V30 1566 H -3.775 13.273 14.889 0
M  V30 1567 H -5.028 14.088 15.13 0
M  V30 1568 O -11.984 -12.599 13.357 0
M  V30 1569 H -12.63 -13.251 13.085 0
M  V30 1570 H -12.03 -12.599 14.313 0
M  V30 1571 O 9.841 -14.874 -4.188 0
M  V30 1572 H 10.499 -14.984 -4.874 0
M  V30 1573 H 9.942 -13.966 -3.902 0
M  V30 1574 O -13.785 -5.745 2.724 0
M  V30 1575 H -13.477 -5.003 2.203 0
M  V30 1576 H -13.429 -6.514 2.279 0
M  V30 1577 O -6.141 6.892 4.901 0
M  V30 1578 H -5.871 6.936 3.984 0
M  V30 1579 H -5.427 7.31 5.382 0
M  V30 1580 O -0.23 -12.098 10.422 0
M  V30 1581 H -0.351 -13.047 10.387 0
M  V30 1582 H 0.589 -11.979 10.903 0
M  V30 1583 O -12.702 7.869 4.615 0
M  V30 1584 H -11.996 8.277 4.114 0
M  V30 1585 H -12.638 8.262 5.485 0
M  V30 1586 O 8.758 -11.454 5.971 0
M  V30 1587 H 9.137 -10.727 6.465 0
M  V30 1588 H 8.674 -11.12 5.079 0
M  V30 1589 O -8.183 0.602 10.887 0
M  V30 1590 H -8.568 -0.069 10.324 0
M  V30 1591 H -8.302 1.419 10.403 0
M  V30 1592 O -7.252 4.996 15.202 0
M  V30 1593 H -7.177 5.762 14.632 0
M  V30 1594 H -8.152 5.024 15.525 0
M  V30 1595 O 13.051 2.666 14.224 0
M  V30 1596 H 12.743 3.315 13.592 0
M  V30 1597 H 13.067 3.132 15.059 0
M  V30 1598 O -7.403 14.591 -7.376 0
M  V30 1599 H -8.134 14.718 -6.771 0
M  V30 1600 H -7.273 15.451 -7.777 0
M  V30 1601 O 16.773 -16.56 12.159 0
M  V30 1602 H 16.015 -17.107 11.953 0
M  V30 1603 H 16.721 -16.424 13.105 0
M  V30 1604 O 5.291 -4.126 10.421 0
M  V30 1605 H 4.384 -3.947 10.672 0
M  V30 1606 H 5.792 -3.408 10.806 0
M  V30 1607 O 6.999 16.449 -1.074 0
M  V30 1608 H 7.241 16.202 -0.181 0
M  V30 1609 H 7.522 15.874 -1.632 0
M  V30 1610 O 16.454 11.167 -9.375 0
M  V30 1611 H 16.946 11.895 -9.756 0
M  V30 1612 H 17.022 10.831 -8.682 0
M  V30 1613 O -13.917 11.415 -0.886 0
M  V30 1614 H -13.144 11.946 -0.691 0
M  V30 1615 H -14.655 12.014 -0.774 0
M  V30 1616 O -10.187 6.435 6.129 0
M  V30 1617 H -9.991 7.013 5.392 0
M  V30 1618 H -9.41 6.482 6.685 0
M  V30 1619 O 10.876 13.688 12.192 0
M  V30 1620 H 11.007 14.616 12.389 0
M  V30 1621 H 11.713 13.277 12.406 0
M  V30 1622 O -0.278 -7.63 9.505 0
M  V30 1623 H -1.103 -7.662 9.988 0
M  V30 1624 H -0.374 -8.292 8.821 0
M  V30 1625 O -0.508 14.328 -2.98 0
M  V30 1626 H -0.337 13.471 -3.37 0
M  V30 1627 H 0.134 14.909 -3.387 0
M  V30 1628 O 13.38 7.043 15.745 0
M  V30 1629 H 14.007 6.34 15.573 0
M  V30 1630 H 12.559 6.731 15.363 0
M  V30 1631 O -14.068 -0.651 8.366 0
M  V30 1632 H -14.405 -0.17 7.611 0
M  V30 1633 H -13.846 -1.516 8.02 0
M  V30 1634 O -8.424 -14.063 1.258 0
M  V30 1635 H -8.878 -14.787 0.827 0
M  V30 1636 H -9.11 -13.604 1.742 0
M  V30 1637 O -0.87 -13.167 -0.9 0
M  V30 1638 H -0.454 -12.643 -0.215 0
M  V30 1639 H -1.201 -12.523 -1.526 0
M  V30 1640 O 2.002 13.557 -16.114 0
M  V30 1641 H 2.542 14.333 -16.263 0
M  V30 1642 H 1.78 13.595 -15.183 0
M  V30 1643 O -14.474 -0.201 11.085 0
M  V30 1644 H -13.853 0.522 11.176 0
M  V30 1645 H -14.45 -0.422 10.154 0
M  V30 1646 O -10.406 -7.469 7.9 0
M  V30 1647 H -10.281 -7.872 8.759 0
M  V30 1648 H -9.593 -7.652 7.428 0
M  V30 1649 O -8.355 1.15 2.986 0
M  V30 1650 H -8.131 1.143 2.055 0
M  V30 1651 H -8.001 0.328 3.324 0
M  V30 1652 O -7.009 -13.837 16.841 0
M  V30 1653 H -6.127 -13.703 16.493 0
M  V30 1654 H -7.591 -13.57 16.13 0
M  V30 1655 O -7.503 9.401 -16.318 0
M  V30 1656 H -6.725 9.833 -16.671 0
M  V30 1657 H -7.215 8.509 -16.124 0
M  V30 1658 O 12.384 -13.332 -12.512 0
M  V30 1659 H 12.805 -12.498 -12.721 0
M  V30 1660 H 13.11 -13.925 -12.319 0
M  V30 1661 O 15.998 14.88 5.038 0
M  V30 1662 H 16.936 14.982 4.876 0
M  V30 1663 H 15.875 13.938 5.15 0
M  V30 1664 O -7.507 12.695 -10.139 0
M  V30 1665 H -7.205 12.545 -9.243 0
M  V30 1666 H -8.186 13.365 -10.054 0
M  V30 1667 O 1.105 8.637 6.872 0
M  V30 1668 H 1.283 8.676 5.932 0
M  V30 1669 H 0.67 9.467 7.069 0
M  V30 1670 O 2.528 8.601 14.199 0
M  V30 1671 H 2.003 8.746 13.411 0
M  V30 1672 H 3.361 8.261 13.874 0
M  V30 1673 O 13.664 6.997 6.268 0
M  V30 1674 H 13.938 6.272 6.83 0
M  V30 1675 H 12.738 7.123 6.474 0
M  V30 1676 O 9.48 3.808 5.203 0
M  V30 1677 H 10.197 3.377 4.738 0
M  V30 1678 H 9.825 3.965 6.082 0
M  V30 1679 O 11.841 12.574 4.935 0
M  V30 1680 H 12.624 12.841 4.453 0
M  V30 1681 H 11.654 11.69 4.618 0
M  V30 1682 O 9.895 16.447 0.607 0
M  V30 1683 H 9.774 16.522 -0.339 0
M  V30 1684 H 9.052 16.131 0.933 0
M  V30 1685 O 5.739 14.219 -8.813 0
M  V30 1686 H 5.058 14.837 -9.078 0
M  V30 1687 H 5.985 13.771 -9.623 0
M  V30 1688 O -2.938 15.753 9.635 0
M  V30 1689 H -3.068 16.312 8.87 0
M  V30 1690 H -3.82 15.601 9.975 0
M  V30 1691 O -5.198 9.047 8.669 0
M  V30 1692 H -5.223 9.762 9.306 0
M  V30 1693 H -5.859 8.428 8.978 0
M  V30 1694 O -5.094 -13.335 -8.337 0
M  V30 1695 H -5.102 -12.397 -8.526 0
M  V30 1696 H -5.084 -13.753 -9.197 0
M  V30 1697 O 2.687 -0.045 2.582 0
M  V30 1698 H 2.662 0.523 3.353 0
M  V30 1699 H 3.452 -0.603 2.721 0
M  V30 1700 O -8.055 -10.97 4.267 0
M  V30 1701 H -8.887 -11.442 4.22 0
M  V30 1702 H -8.283 -10.061 4.072 0
M  V30 1703 O -2.494 4.907 -8.077 0
M  V30 1704 H -2.907 5.176 -7.256 0
M  V30 1705 H -1.579 5.172 -7.983 0
M  V30 1706 O -6.737 -13.706 -4.971 0
M  V30 1707 H -6.197 -13.778 -4.184 0
M  V30 1708 H -6.334 -14.31 -5.595 0
M  V30 1709 O -13.52 -12.458 10.704 0
M  V30 1710 H -13.47 -12.422 9.749 0
M  V30 1711 H -13.964 -13.285 10.891 0
M  V30 1712 O -10.14 3.415 6.302 0
M  V30 1713 H -9.587 4.184 6.439 0
M  V30 1714 H -10.729 3.666 5.591 0
M  V30 1715 O -7.642 6.392 -1.276 0
M  V30 1716 H -7.459 6 -0.423 0
M  V30 1717 H -6.835 6.267 -1.776 0
M  V30 1718 O 8.738 3.172 -9.604 0
M  V30 1719 H 9.477 3.766 -9.471 0
M  V30 1720 H 9.02 2.347 -9.209 0
M  V30 1721 O 3.628 13.619 -6.433 0
M  V30 1722 H 3.064 14.064 -7.065 0
M  V30 1723 H 3.11 12.873 -6.132 0
M  V30 1724 O 5.02 -1.893 3.402 0
M  V30 1725 H 5.73 -2.493 3.173 0
M  V30 1726 H 5.399 -1.02 3.294 0
M  V30 1727 O 16.901 -12.322 5.827 0
M  V30 1728 H 16.944 -12.196 6.775 0
M  V30 1729 H 17.039 -11.449 5.461 0
M  V30 1730 O 7.289 -4.794 -16.056 0
M  V30 1731 H 6.607 -4.481 -15.461 0
M  V30 1732 H 7.498 -4.035 -16.601 0
M  V30 1733 O 10.281 9.733 -8.45 0
M  V30 1734 H 10.501 8.854 -8.14 0
M  V30 1735 H 10.731 9.81 -9.292 0
M  V30 1736 O 6.715 11.978 -4.564 0
M  V30 1737 H 7.592 11.643 -4.376 0
M  V30 1738 H 6.13 11.412 -4.061 0
M  V30 1739 O -14.539 14.283 -7.258 0
M  V30 1740 H -15.165 14.252 -7.982 0
M  V30 1741 H -15.033 13.97 -6.5 0
M  V30 1742 O -11.009 1.579 1.738 0
M  V30 1743 H -10.727 1.879 2.602 0
M  V30 1744 H -10.246 1.715 1.176 0
M  V30 1745 O -16.978 7.521 10.61 0
M  V30 1746 H -16.649 6.668 10.327 0
M  V30 1747 H -16.542 8.149 10.035 0
M  V30 1748 O 8.185 -5.757 -6.201 0
M  V30 1749 H 8.649 -6.566 -6.418 0
M  V30 1750 H 8.08 -5.309 -7.041 0
M  V30 1751 O 4.995 10.513 11.28 0
M  V30 1752 H 5.567 10.433 10.517 0
M  V30 1753 H 5.031 9.653 11.698 0
M  V30 1754 O -2.885 7.524 7.628 0
M  V30 1755 H -2.535 7.779 6.774 0
M  V30 1756 H -3.664 8.07 7.74 0
M  V30 1757 O 9.916 -13.93 -14.365 0
M  V30 1758 H 9.42 -14.648 -13.972 0
M  V30 1759 H 10.637 -13.775 -13.755 0
M  V30 1760 O 13.316 9.497 -5.345 0
M  V30 1761 H 14.225 9.211 -5.439 0
M  V30 1762 H 13.016 9.08 -4.538 0
M  V30 1763 O -15.349 -13.049 -10.206 0
M  V30 1764 H -14.715 -13.57 -9.713 0
M  V30 1765 H -15.247 -13.342 -11.111 0
M  V30 1766 O -6.503 3.723 -5.886 0
M  V30 1767 H -5.939 4.437 -5.59 0
M  V30 1768 H -7.173 4.152 -6.419 0
M  V30 1769 O 16.402 -12.676 -15.719 0
M  V30 1770 H 15.583 -13.002 -16.092 0
M  V30 1771 H 17.087 -13.127 -16.213 0
M  V30 1772 O 6.989 4.325 10.361 0
M  V30 1773 H 7.134 3.427 10.065 0
M  V30 1774 H 6.972 4.843 9.556 0
M  V30 1775 O -5.965 -2.78 13.266 0
M  V30 1776 H -5.037 -2.559 13.343 0
M  V30 1777 H -6.111 -3.443 13.941 0
M  V30 1778 O 1.429 -16.121 -13.794 0
M  V30 1779 H 1.867 -15.317 -14.072 0
M  V30 1780 H 1.784 -16.799 -14.368 0
M  V30 1781 O -1.391 13.466 8.209 0
M  V30 1782 H -1.457 14.408 8.367 0
M  V30 1783 H -2.264 13.211 7.911 0
M  V30 1784 O -13.703 14.792 11.201 0
M  V30 1785 H -12.748 14.732 11.188 0
M  V30 1786 H -13.899 15.606 10.737 0
M  V30 1787 O 12.224 12.129 10.005 0
M  V30 1788 H 11.973 12.896 10.519 0
M  V30 1789 H 12.539 12.489 9.176 0
M  V30 1790 O -0.795 -10.551 -14.919 0
M  V30 1791 H 0.151 -10.412 -14.88 0
M  V30 1792 H -1.17 -9.674 -14.844 0
M  V30 1793 O 4.255 -4.655 -15.097 0
M  V30 1794 H 4.832 -4.94 -14.389 0
M  V30 1795 H 3.878 -5.465 -15.44 0
M  V30 1796 O -9.999 8.047 -14.28 0
M  V30 1797 H -9.092 8.093 -13.978 0
M  V30 1798 H -10.513 8.396 -13.552 0
M  V30 1799 O -8.33 2.673 9.356 0
M  V30 1800 H -8.895 3.373 9.029 0
M  V30 1801 H -7.668 2.561 8.673 0
M  V30 1802 O 16.374 -10.8 10.669 0
M  V30 1803 H 15.755 -10.07 10.707 0
M  V30 1804 H 17.075 -10.49 10.096 0
M  V30 1805 O -16.139 13.2 2.437 0
M  V30 1806 H -16.882 12.943 1.892 0
M  V30 1807 H -15.538 12.456 2.39 0
M  V30 1808 O -9.436 -16.465 0.292 0
M  V30 1809 H -8.762 -16.713 -0.341 0
M  V30 1810 H -9.155 -16.871 1.113 0
M  V30 1811 O -7.215 -10.283 -4.537 0
M  V30 1812 H -6.317 -10.61 -4.598 0
M  V30 1813 H -7.749 -10.972 -4.931 0
M  V30 1814 O 0.503 11.704 3.706 0
M  V30 1815 H 1.21 11.674 4.35 0
M  V30 1816 H 0.734 11.031 3.065 0
M  V30 1817 O -12.745 6.792 -15.277 0
M  V30 1818 H -13.06 7.691 -15.179 0
M  V30 1819 H -11.792 6.873 -15.299 0
M  V30 1820 O 3.18 -3.922 6.697 0
M  V30 1821 H 3.749 -3.192 6.457 0
M  V30 1822 H 3.737 -4.697 6.619 0
M  V30 1823 O 8.604 -6.044 15.248 0
M  V30 1824 H 7.963 -5.765 15.902 0
M  V30 1825 H 9.295 -6.468 15.756 0
M  V30 1826 O -2.738 2.654 -6.552 0
M  V30 1827 H -1.935 2.135 -6.599 0
M  V30 1828 H -2.631 3.323 -7.228 0
M  V30 1829 O -12.207 16.558 -0.486 0
M  V30 1830 H -11.331 16.278 -0.752 0
M  V30 1831 H -12.178 17.514 -0.532 0
M  V30 1832 O -5.053 0.453 -12.182 0
M  V30 1833 H -4.988 -0.492 -12.322 0
M  V30 1834 H -5.171 0.818 -13.059 0
M  V30 1835 O 2.125 -12.086 11.812 0
M  V30 1836 H 2.636 -11.926 12.606 0
M  V30 1837 H 2.526 -11.523 11.15 0
M  V30 1838 O -4.982 0.746 15.192 0
M  V30 1839 H -5.044 -0.101 15.633 0
M  V30 1840 H -5.472 0.63 14.378 0
M  V30 1841 O -9.066 -1.659 9.457 0
M  V30 1842 H -9.439 -2.184 8.749 0
M  V30 1843 H -8.391 -2.219 9.841 0
M  V30 1844 O -14.066 5.162 -4.847 0
M  V30 1845 H -14.014 5.843 -5.518 0
M  V30 1846 H -13.515 5.485 -4.134 0
M  V30 1847 O -0.737 5.724 14.631 0
M  V30 1848 H -1.505 6.236 14.887 0
M  V30 1849 H -0.063 5.969 15.265 0
M  V30 1850 O -14.84 -15.818 -11.999 0
M  V30 1851 H -15.245 -15.322 -12.71 0
M  V30 1852 H -14.083 -15.292 -11.74 0
M  V30 1853 O 2.118 7.114 1.448 0
M  V30 1854 H 1.598 6.511 0.917 0
M  V30 1855 H 2.628 6.546 2.026 0
M  V30 1856 O -0.336 -2.639 4.571 0
M  V30 1857 H -0.19 -2.272 3.699 0
M  V30 1858 H 0.273 -3.375 4.626 0
M  V30 1859 O 4.367 -9.335 -9.06 0
M  V30 1860 H 5.169 -9.723 -8.711 0
M  V30 1861 H 3.665 -9.732 -8.544 0
M  V30 1862 O 3.29 3.844 0.413 0
M  V30 1863 H 2.919 2.97 0.294 0
M  V30 1864 H 2.561 4.44 0.242 0
M  V30 1865 O -4.088 -14.16 -12.853 0
M  V30 1866 H -4.342 -14.685 -13.611 0
M  V30 1867 H -4.016 -13.268 -13.192 0
M  V30 1868 O -10.306 -16.307 -8.33 0
M  V30 1869 H -10.164 -15.932 -9.2 0
M  V30 1870 H -10.663 -15.585 -7.813 0
M  V30 1871 O 3.399 16.097 -8.902 0
M  V30 1872 H 2.614 16.043 -8.356 0
M  V30 1873 H 3.214 16.806 -9.518 0
M  V30 1874 O -3.06 6.498 -16.768 0
M  V30 1875 H -3.185 6.899 -15.908 0
M  V30 1876 H -3.632 5.731 -16.76 0
M  V30 1877 O -4.527 4.688 -13.284 0
M  V30 1878 H -3.721 4.216 -13.495 0
M  V30 1879 H -4.799 5.081 -14.113 0
M  V30 1880 O -10.855 -13.959 -6.868 0
M  V30 1881 H -10.232 -13.42 -6.38 0
M  V30 1882 H -11.065 -13.439 -7.644 0
M  V30 1883 O 12.148 -15.343 -5.68 0
M  V30 1884 H 12.712 -16.096 -5.502 0
M  V30 1885 H 12.676 -14.585 -5.432 0
M  V30 1886 O -15.46 -9.708 9.557 0
M  V30 1887 H -14.954 -9.51 8.769 0
M  V30 1888 H -14.845 -9.577 10.278 0
M  V30 1889 O -5.78 13.347 -14.394 0
M  V30 1890 H -6.246 12.511 -14.393 0
M  V30 1891 H -6.132 13.817 -15.15 0
M  V30 1892 O 1.636 -14.767 -0.551 0
M  V30 1893 H 1.455 -15.295 0.227 0
M  V30 1894 H 0.798 -14.354 -0.76 0
M  V30 1895 O -5.155 -3.688 -2.875 0
M  V30 1896 H -5.276 -2.945 -3.467 0
M  V30 1897 H -6.042 -4.001 -2.698 0
M  V30 1898 O -14.482 5.088 -16.764 0
M  V30 1899 H -13.791 5.721 -16.565 0
M  V30 1900 H -14.698 4.695 -15.918 0
M  V30 1901 O 1.396 -4.919 -14.158 0
M  V30 1902 H 0.978 -4.865 -15.017 0
M  V30 1903 H 2.275 -4.567 -14.297 0
M  V30 1904 O 12.554 -4.174 8.421 0
M  V30 1905 H 12.853 -3.692 9.193 0
M  V30 1906 H 12.46 -3.505 7.743 0
M  V30 1907 O -13.889 14.8 -2.469 0
M  V30 1908 H -13.057 14.373 -2.671 0
M  V30 1909 H -13.696 15.736 -2.521 0
M  V30 1910 O -8.44 -5.851 -11.859 0
M  V30 1911 H -9.12 -6.523 -11.815 0
M  V30 1912 H -8.343 -5.668 -12.793 0
M  V30 1913 O 8.115 -8.25 13.755 0
M  V30 1914 H 8.423 -8.946 14.335 0
M  V30 1915 H 8.181 -7.453 14.281 0
M  V30 1916 O -1.364 -13.61 -8.8 0
M  V30 1917 H -2.007 -14.204 -9.188 0
M  V30 1918 H -0.651 -14.182 -8.514 0
M  V30 1919 O 6.473 3.866 7.558 0
M  V30 1920 H 7.12 3.532 6.936 0
M  V30 1921 H 5.959 3.097 7.805 0
M  V30 1922 O 0.985 -15.699 1.951 0
M  V30 1923 H 0.367 -14.978 2.072 0
M  V30 1924 H 1.51 -15.702 2.751 0
M  V30 1925 O -4.678 4.437 16.301 0
M  V30 1926 H -4.889 4.104 15.429 0
M  V30 1927 H -5.528 4.593 16.711 0
M  V30 1928 O 9.512 9.167 15.032 0
M  V30 1929 H 9.181 9.288 14.142 0
M  V30 1930 H 8.867 8.598 15.453 0
M  V30 1931 O -2.443 -11.663 -10.997 0
M  V30 1932 H -3.382 -11.582 -11.164 0
M  V30 1933 H -2.38 -12.298 -10.284 0
M  V30 1934 O 5.876 -16.056 2.989 0
M  V30 1935 H 5.105 -15.52 2.802 0
M  V30 1936 H 5.889 -16.133 3.943 0
M  V30 1937 O 15.978 11.481 -14.92 0
M  V30 1938 H 15.472 10.696 -15.131 0
M  V30 1939 H 16.851 11.304 -15.27 0
M  V30 1940 O 15.677 13.553 16.331 0
M  V30 1941 H 15.929 12.969 15.615 0
M  V30 1942 H 15.405 12.965 17.035 0
M  V30 1943 O -10.206 15.257 9.042 0
M  V30 1944 H -9.353 15.528 8.701 0
M  V30 1945 H -10.813 15.409 8.318 0
M  V30 1946 O 13.457 -7.306 -9.403 0
M  V30 1947 H 13.627 -8.169 -9.025 0
M  V30 1948 H 12.853 -7.475 -10.126 0
M  V30 1949 O 15.908 -6.524 0.807 0
M  V30 1950 H 15.2 -6.715 1.422 0
M  V30 1951 H 16.579 -6.096 1.339 0
M  V30 1952 O -16.856 -12.416 -0.766 0
M  V30 1953 H -16.627 -11.593 -1.197 0
M  V30 1954 H -17.296 -12.151 0.042 0
M  V30 1955 O -12.268 -9.331 -2.392 0
M  V30 1956 H -11.94 -9.223 -1.499 0
M  V30 1957 H -13.186 -9.578 -2.283 0
M  V30 1958 O -10.191 2.371 -7.082 0
M  V30 1959 H -10.876 1.782 -7.4 0
M  V30 1960 H -9.374 1.973 -7.382 0
M  V30 1961 O -7.078 -12.316 12.187 0
M  V30 1962 H -6.344 -12.919 12.068 0
M  V30 1963 H -7.854 -12.875 12.168 0
M  V30 1964 O 1.735 -16.578 13.807 0
M  V30 1965 H 0.926 -16.068 13.858 0
M  V30 1966 H 1.442 -17.484 13.709 0
M  V30 1967 O -10.983 16.763 -4.434 0
M  V30 1968 H -10.54 16.083 -3.925 0
M  V30 1969 H -10.575 17.58 -4.148 0
M  V30 1970 O -9.981 -7.521 13.683 0
M  V30 1971 H -9.339 -7.067 14.228 0
M  V30 1972 H -9.67 -8.426 13.649 0
M  V30 1973 O -5.577 6.911 2.333 0
M  V30 1974 H -6.116 6.329 1.797 0
M  V30 1975 H -4.944 7.284 1.72 0
M  V30 1976 O -1.916 13.329 15.609 0
M  V30 1977 H -1.377 12.736 15.086 0
M  V30 1978 H -1.741 13.076 16.516 0
M  V30 1979 O -7.93 -0.98 -6.041 0
M  V30 1980 H -7.125 -0.464 -6.072 0
M  V30 1981 H -8.402 -0.643 -5.28 0
M  V30 1982 O -2.577 -14.083 -3.102 0
M  V30 1983 H -1.826 -14.146 -3.692 0
M  V30 1984 H -2.19 -13.986 -2.232 0
M  V30 1985 O -0.995 5.684 8.732 0
M  V30 1986 H -0.625 5.156 8.024 0
M  V30 1987 H -1.419 6.418 8.288 0
M  V30 1988 O 6.674 -10.55 -7.992 0
M  V30 1989 H 7.627 -10.464 -7.978 0
M  V30 1990 H 6.439 -10.767 -7.09 0
M  V30 1991 O -11.161 7.509 0.419 0
M  V30 1992 H -12.024 7.851 0.182 0
M  V30 1993 H -11.151 6.619 0.067 0
M  V30 1994 O -14.032 -5.941 -4.564 0
M  V30 1995 H -14.723 -5.96 -5.227 0
M  V30 1996 H -13.564 -5.122 -4.729 0
M  V30 1997 O 14.439 3.684 4.646 0
M  V30 1998 H 14.616 4.62 4.553 0
M  V30 1999 H 15.14 3.257 4.153 0
M  V30 2000 O 4.303 -14.072 -3.887 0
M  V30 2001 H 5.07 -14.618 -4.061 0
M  V30 2002 H 4.512 -13.616 -3.072 0
M  V30 2003 O 5.815 -16.353 5.646 0
M  V30 2004 H 6.496 -16.13 6.28 0
M  V30 2005 H 5.583 -17.259 5.852 0
M  V30 2006 O 15.689 -12.464 1.679 0
M  V30 2007 H 15.783 -13.24 2.231 0
M  V30 2008 H 16.332 -11.844 2.025 0
M  V30 2009 O 2.663 -15.027 -6.618 0
M  V30 2010 H 2.183 -15.148 -7.437 0
M  V30 2011 H 3.404 -15.629 -6.682 0
M  V30 2012 O 8.653 9.535 12.382 0
M  V30 2013 H 8.536 10.427 12.055 0
M  V30 2014 H 9.251 9.126 11.757 0
M  V30 2015 O 8.196 1.423 6.718 0
M  V30 2016 H 8.567 2.1 6.153 0
M  V30 2017 H 7.565 0.966 6.162 0
M  V30 2018 O -3.279 -1.566 13.862 0
M  V30 2019 H -2.407 -1.269 13.601 0
M  V30 2020 H -3.751 -0.762 14.079 0
M  V30 2021 O -10.8 -2.426 -13.515 0
M  V30 2022 H -11.461 -2.469 -12.824 0
M  V30 2023 H -10.773 -3.311 -13.877 0
M  V30 2024 O -6.6 1.853 -8.088 0
M  V30 2025 H -6.197 1.353 -7.378 0
M  V30 2026 H -6.44 2.768 -7.857 0
M  V30 2027 O 12.26 -9.102 10.324 0
M  V30 2028 H 11.353 -9.006 10.617 0
M  V30 2029 H 12.278 -8.69 9.46 0
M  V30 2030 O 7.148 -14.408 12.125 0
M  V30 2031 H 6.687 -15.137 12.54 0
M  V30 2032 H 6.541 -13.671 12.193 0
M  V30 2033 O -11.727 1.3 13.904 0
M  V30 2034 H -12.18 0.475 14.076 0
M  V30 2035 H -12.239 1.959 14.373 0
M  V30 2036 O -9.84 15.374 5.602 0
M  V30 2037 H -10.091 15.719 4.745 0
M  V30 2038 H -8.945 15.685 5.733 0
M  V30 2039 O 7.156 7.77 15.853 0
M  V30 2040 H 6.345 7.295 16.034 0
M  V30 2041 H 7.238 8.39 16.578 0
M  V30 2042 O -16.845 9.993 -1.19 0
M  V30 2043 H -16.016 10.457 -1.307 0
M  V30 2044 H -16.931 9.891 -0.242 0
M  V30 2045 O -6.489 -13.221 3.272 0
M  V30 2046 H -6.942 -13.761 2.624 0
M  V30 2047 H -6.988 -12.405 3.296 0
M  V30 2048 O 13.219 -0.564 -10.186 0
M  V30 2049 H 12.361 -0.295 -10.514 0
M  V30 2050 H 13.631 0.25 -9.895 0
M  V30 2051 O 11.281 10.518 -16.171 0
M  V30 2052 H 10.607 10.905 -15.613 0
M  V30 2053 H 10.813 9.871 -16.699 0
M  V30 2054 O 8.939 6.113 3.436 0
M  V30 2055 H 8.656 6.977 3.734 0
M  V30 2056 H 8.798 5.54 4.189 0
M  V30 2057 O 11.186 7.327 2.207 0
M  V30 2058 H 10.619 6.561 2.293 0
M  V30 2059 H 11.933 7.017 1.696 0
M  V30 2060 O -12.409 -3.66 -2.578 0
M  V30 2061 H -13.292 -3.29 -2.583 0
M  V30 2062 H -12.4 -4.27 -3.315 0
M  V30 2063 O -15.518 14.394 15.204 0
M  V30 2064 H -15.539 14.076 14.302 0
M  V30 2065 H -16.421 14.307 15.51 0
M  V30 2066 O 8.453 13.541 -7.027 0
M  V30 2067 H 9.108 12.957 -6.645 0
M  V30 2068 H 8.469 13.34 -7.963 0
M  V30 2069 O -8.904 -10.287 13.569 0
M  V30 2070 H -9.366 -11.11 13.727 0
M  V30 2071 H -8.236 -10.508 12.92 0
M  V30 2072 O 9.491 -14.121 9.368 0
M  V30 2073 H 8.751 -13.515 9.394 0
M  V30 2074 H 10.019 -13.887 10.132 0
M  V30 2075 O -4.457 8.142 14.258 0
M  V30 2076 H -4.079 8.009 15.128 0
M  V30 2077 H -3.71 8.367 13.704 0
M  V30 2078 O 15.356 13.748 -2.588 0
M  V30 2079 H 15.263 13.973 -3.514 0
M  V30 2080 H 14.494 13.924 -2.21 0
M  V30 2081 O 16.122 -14.936 -1.928 0
M  V30 2082 H 16.573 -14.178 -1.556 0
M  V30 2083 H 15.202 -14.675 -1.963 0
M  V30 2084 O 16.067 -11.107 -7.264 0
M  V30 2085 H 15.426 -10.574 -6.792 0
M  V30 2086 H 16.872 -10.589 -7.243 0
M  V30 2087 O 4.617 10.267 3.643 0
M  V30 2088 H 3.916 10.486 4.258 0
M  V30 2089 H 4.381 10.725 2.837 0
M  V30 2090 O -3.048 3.802 4.224 0
M  V30 2091 H -3.266 2.873 4.291 0
M  V30 2092 H -3.491 4.207 4.969 0
M  V30 2093 O 13.227 6.217 0.927 0
M  V30 2094 H 13.391 5.31 0.666 0
M  V30 2095 H 14.009 6.693 0.647 0
M  V30 2096 O 12.323 -9.451 15.678 0
M  V30 2097 H 13.23 -9.495 15.982 0
M  V30 2098 H 12.38 -9.573 14.731 0
M  V30 2099 O 13.03 11.883 0.058 0
M  V30 2100 H 13.606 11.191 0.383 0
M  V30 2101 H 12.277 11.417 -0.307 0
M  V30 2102 O 2.303 -1.131 -9.881 0
M  V30 2103 H 2.79 -1.17 -9.058 0
M  V30 2104 H 1.553 -1.71 -9.745 0
M  V30 2105 O -13.334 -9 7.522 0
M  V30 2106 H -12.524 -8.656 7.898 0
M  V30 2107 H -13.675 -8.282 6.988 0
M  V30 2108 O -10.572 -0.816 -1.246 0
M  V30 2109 H -10.256 -0.064 -0.745 0
M  V30 2110 H -11.507 -0.65 -1.364 0
M  V30 2111 O -4.173 5.999 -5.907 0
M  V30 2112 H -4.68 6.808 -5.975 0
M  V30 2113 H -3.791 6.028 -5.03 0
M  V30 2114 O -2.077 -5.327 5.989 0
M  V30 2115 H -1.301 -5.428 6.54 0
M  V30 2116 H -2.622 -4.693 6.456 0
M  V30 2117 O -14.402 -0.769 -7.323 0
M  V30 2118 H -14.249 -0.968 -6.399 0
M  V30 2119 H -13.635 -0.261 -7.588 0
M  V30 2120 O 5.808 11.482 -7.472 0
M  V30 2121 H 6.187 11.06 -6.7 0
M  V30 2122 H 6.054 10.914 -8.201 0
M  V30 2123 O 7.474 -3.257 4.295 0
M  V30 2124 H 8.415 -3.097 4.22 0
M  V30 2125 H 7.366 -3.645 5.163 0
M  V30 2126 O 8.316 15.601 -12.464 0
M  V30 2127 H 8.895 15.276 -11.774 0
M  V30 2128 H 7.525 15.068 -12.384 0
M  V30 2129 O 13.512 -8.393 1.477 0
M  V30 2130 H 12.586 -8.175 1.37 0
M  V30 2131 H 13.628 -8.495 2.421 0
M  V30 2132 O -7.114 3.384 3.22 0
M  V30 2133 H -6.409 3.001 2.698 0
M  V30 2134 H -7.691 2.648 3.422 0
M  V30 2135 O 15.903 12.542 10.713 0
M  V30 2136 H 16.087 11.891 10.035 0
M  V30 2137 H 15.122 12.211 11.158 0
M  V30 2138 O -13.337 -14.697 -16.516 0
M  V30 2139 H -12.428 -14.565 -16.783 0
M  V30 2140 H -13.685 -13.813 -16.401 0
M  V30 2141 O 11.883 0.716 -15.517 0
M  V30 2142 H 12.518 1.383 -15.258 0
M  V30 2143 H 11.126 0.873 -14.953 0
M  V30 2144 O -16.706 13.869 -13.279 0
M  V30 2145 H -16.313 14.689 -13.58 0
M  V30 2146 H -16.54 13.249 -13.989 0
M  V30 2147 O -14.825 -13.104 2.643 0
M  V30 2148 H -15.515 -13.763 2.57 0
M  V30 2149 H -14.909 -12.578 1.848 0
M  V30 2150 O -13.897 -7.653 5.091 0
M  V30 2151 H -13.324 -7.073 4.589 0
M  V30 2152 H -14.468 -8.052 4.435 0
M  V30 2153 O 6.966 -2.017 10.945 0
M  V30 2154 H 7.612 -2.591 11.357 0
M  V30 2155 H 7.299 -1.88 10.058 0
M  V30 2156 O -11.993 12.647 6.585 0
M  V30 2157 H -11.249 12.835 6.012 0
M  V30 2158 H -12.162 13.473 7.038 0
M  V30 2159 O -1.924 8.804 -9.488 0
M  V30 2160 H -2.666 8.595 -10.055 0
M  V30 2161 H -2.317 9.229 -8.726 0
M  V30 2162 O 13.008 -10.3 -0.648 0
M  V30 2163 H 13.065 -9.675 0.075 0
M  V30 2164 H 12.766 -11.127 -0.232 0
M  V30 2165 O 14.675 4.722 -2.308 0
M  V30 2166 H 14.556 5.651 -2.11 0
M  V30 2167 H 14.916 4.703 -3.234 0
M  V30 2168 O -9.362 -5.175 10.749 0
M  V30 2169 H -8.578 -4.626 10.768 0
M  V30 2170 H -9.163 -5.856 10.107 0
M  V30 2171 O -3.373 3.41 -10.875 0
M  V30 2172 H -3.076 3.971 -10.158 0
M  V30 2173 H -3.881 3.992 -11.44 0
M  V30 2174 O 12.909 -6.323 16.594 0
M  V30 2175 H 12.554 -5.578 17.079 0
M  V30 2176 H 12.223 -6.55 15.966 0
M  V30 2177 O 12.243 -4.31 12.611 0
M  V30 2178 H 12.784 -5.007 12.981 0
M  V30 2179 H 12.836 -3.824 12.038 0
M  V30 2180 O -14.688 -8.727 -9.71 0
M  V30 2181 H -14.279 -7.865 -9.782 0
M  V30 2182 H -14.077 -9.239 -9.18 0
M  V30 2183 O -14.195 5.233 1.561 0
M  V30 2184 H -14.08 5.976 0.969 0
M  V30 2185 H -13.308 5.012 1.845 0
M  V30 2186 O -16.483 -2.376 16.447 0
M  V30 2187 H -17.393 -2.667 16.397 0
M  V30 2188 H -16.049 -2.82 15.719 0
M  V30 2189 O 13.482 13.29 12.609 0
M  V30 2190 H 13.811 12.397 12.508 0
M  V30 2191 H 14.243 13.797 12.891 0
M  V30 2192 O 15.973 1.756 9.611 0
M  V30 2193 H 15.708 1.25 10.379 0
M  V30 2194 H 16.867 2.038 9.807 0
M  V30 2195 O 6.478 5.121 -1.032 0
M  V30 2196 H 7.128 5.316 -0.357 0
M  V30 2197 H 5.74 4.746 -0.553 0
M  V30 2198 O -11.245 3.034 -2.346 0
M  V30 2199 H -11.808 2.388 -2.773 0
M  V30 2200 H -10.816 3.492 -3.069 0
M  V30 2201 O -8.648 9.217 -7.053 0
M  V30 2202 H -8.758 9.103 -6.109 0
M  V30 2203 H -9.46 9.634 -7.341 0
M  V30 2204 O -15.935 -0.274 3.669 0
M  V30 2205 H -16.555 -0.956 3.409 0
M  V30 2206 H -15.481 -0.042 2.859 0
M  V30 2207 O 9.368 15.945 4.542 0
M  V30 2208 H 8.903 15.203 4.157 0
M  V30 2209 H 10.288 15.788 4.33 0
M  V30 2210 O 2.466 -8.373 8.298 0
M  V30 2211 H 1.749 -8.04 8.838 0
M  V30 2212 H 2.035 -8.912 7.634 0
M  V30 2213 O 15.314 -5.605 -5.145 0
M  V30 2214 H 14.9 -4.978 -4.55 0
M  V30 2215 H 15.43 -6.395 -4.617 0
M  V30 2216 O 9.345 11.051 -4.548 0
M  V30 2217 H 9.373 10.171 -4.173 0
M  V30 2218 H 10.051 11.523 -4.106 0
M  V30 2219 O 13.149 0.822 -7.094 0
M  V30 2220 H 12.705 1.428 -6.501 0
M  V30 2221 H 13.582 0.194 -6.516 0
M  V30 2222 O -0.538 15.969 -16.524 0
M  V30 2223 H -0.627 15.28 -17.183 0
M  V30 2224 H -1.378 15.971 -16.064 0
M  V30 2225 O 8.067 3.835 -5.766 0
M  V30 2226 H 7.798 3.426 -4.943 0
M  V30 2227 H 8.575 3.16 -6.215 0
M  V30 2228 O 13.416 16.598 -4.936 0
M  V30 2229 H 14.276 16.179 -4.912 0
M  V30 2230 H 12.813 15.928 -4.616 0
M  V30 2231 O 5.451 14.704 -13.089 0
M  V30 2232 H 5.543 15.59 -13.439 0
M  V30 2233 H 4.64 14.729 -12.581 0
M  V30 2234 O 1.467 10.079 1.796 0
M  V30 2235 H 0.836 10.096 1.077 0
M  V30 2236 H 1.617 9.148 1.962 0
M  V30 2237 O -11.603 -10.59 11.158 0
M  V30 2238 H -12.403 -11.092 10.999 0
M  V30 2239 H -11.413 -10.728 12.086 0
M  V30 2240 O 2.667 -6.979 16.864 0
M  V30 2241 H 3.351 -7.604 16.624 0
M  V30 2242 H 2.46 -6.524 16.047 0
M  V30 2243 O -12.334 5.798 -7.331 0
M  V30 2244 H -11.742 6.224 -6.711 0
M  V30 2245 H -11.766 5.238 -7.86 0
M  V30 2246 O -4.495 15.198 -3.52 0
M  V30 2247 H -4.396 15.65 -2.682 0
M  V30 2248 H -4.039 14.365 -3.399 0
M  V30 2249 O 14.768 -15.688 -8.645 0
M  V30 2250 H 15.073 -16.385 -8.064 0
M  V30 2251 H 15.359 -14.955 -8.472 0
M  V30 2252 O -3.869 13.516 3.458 0
M  V30 2253 H -3.044 13.859 3.116 0
M  V30 2254 H -3.977 13.95 4.305 0
M  V30 2255 O -8.583 9.883 8.453 0
M  V30 2256 H -8.29 9.196 9.051 0
M  V30 2257 H -8.488 9.5 7.581 0
M  V30 2258 O 3.596 -0.262 -14.924 0
M  V30 2259 H 3.446 -0.411 -13.991 0
M  V30 2260 H 4.547 -0.201 -15.009 0
M  V30 2261 O -14.981 -10.792 -2.448 0
M  V30 2262 H -15.132 -10.104 -3.096 0
M  V30 2263 H -14.885 -11.592 -2.966 0
M  V30 2264 O -16.543 6.135 6.529 0
M  V30 2265 H -16.177 5.773 5.722 0
M  V30 2266 H -15.904 6.792 6.808 0
M  V30 2267 O -12.206 -5.984 14.264 0
M  V30 2268 H -11.422 -6.4 13.904 0
M  V30 2269 H -12.531 -5.429 13.554 0
M  V30 2270 O 11.444 6.816 -1.223 0
M  V30 2271 H 11.867 6.388 -0.478 0
M  V30 2272 H 10.894 6.135 -1.611 0
M  V30 2273 O -3.545 8.956 11.796 0
M  V30 2274 H -3.656 9.838 12.152 0
M  V30 2275 H -3.049 9.085 10.987 0
M  V30 2276 O 13.727 -3.04 4.303 0
M  V30 2277 H 14.006 -3.921 4.553 0
M  V30 2278 H 13.33 -3.149 3.439 0
M  V30 2279 O -10.337 -10.392 6.967 0
M  V30 2280 H -9.649 -11.04 6.817 0
M  V30 2281 H -11.114 -10.911 7.176 0
M  V30 2282 O 4.49 8.264 1.189 0
M  V30 2283 H 3.581 8.118 0.928 0
M  V30 2284 H 4.5 8.094 2.131 0
M  V30 2285 O -12.081 0.969 -4.393 0
M  V30 2286 H -12.718 1.638 -4.645 0
M  V30 2287 H -12.59 0.16 -4.342 0
M  V30 2288 O 5.34 3.178 2.739 0
M  V30 2289 H 4.933 3.836 3.302 0
M  V30 2290 H 4.746 3.101 1.992 0
M  V30 2291 O 9.797 1.22 -14.078 0
M  V30 2292 H 9.869 1.877 -13.385 0
M  V30 2293 H 8.944 1.385 -14.478 0
M  V30 2294 O -15.416 -11.553 12.281 0
M  V30 2295 H -16.285 -11.538 11.879 0
M  V30 2296 H -14.81 -11.484 11.544 0
M  V30 2297 O 12.561 -4.842 -8.372 0
M  V30 2298 H 12.783 -4.271 -9.107 0
M  V30 2299 H 12.778 -5.722 -8.678 0
M  V30 2300 O -16.765 4.847 9.74 0
M  V30 2301 H -16.315 4.234 10.321 0
M  V30 2302 H -16.195 4.914 8.974 0
M  V30 2303 O -10.751 7.224 9.243 0
M  V30 2304 H -11.121 6.431 9.63 0
M  V30 2305 H -10.028 7.461 9.824 0
M  V30 2306 O 13.001 14.353 -1.382 0
M  V30 2307 H 12.946 13.916 -0.532 0
M  V30 2308 H 12.693 15.244 -1.214 0
M  V30 2309 O -7.896 3.619 -2.413 0
M  V30 2310 H -6.958 3.66 -2.597 0
M  V30 2311 H -8.112 4.487 -2.072 0
M  V30 2312 O 9.385 -2.364 -5.045 0
M  V30 2313 H 9.249 -1.478 -5.381 0
M  V30 2314 H 9.741 -2.851 -5.788 0
M  V30 2315 O -11.843 -10.47 -5.44 0
M  V30 2316 H -12.692 -10.896 -5.563 0
M  V30 2317 H -11.342 -11.085 -4.904 0
M  V30 2318 O 1.31 -2.831 15.197 0
M  V30 2319 H 2.262 -2.746 15.245 0
M  V30 2320 H 0.977 -2.073 15.678 0
M  V30 2321 O 11.992 7.087 -11.439 0
M  V30 2322 H 12.775 7.014 -11.984 0
M  V30 2323 H 11.314 6.623 -11.93 0
M  V30 2324 O 16.547 4.512 -0.154 0
M  V30 2325 H 15.774 3.95 -0.11 0
M  V30 2326 H 16.607 4.767 -1.075 0
M  V30 2327 O -15.37 -8.016 -2.99 0
M  V30 2328 H -16.203 -7.577 -3.162 0
M  V30 2329 H -14.706 -7.401 -3.302 0
M  V30 2330 O 5.807 0.021 15.28 0
M  V30 2331 H 5.955 0.279 14.37 0
M  V30 2332 H 6.472 -0.647 15.451 0
M  V30 2333 O 13.715 6.275 -13.553 0
M  V30 2334 H 14.388 5.701 -13.919 0
M  V30 2335 H 13.207 6.562 -14.311 0
M  V30 2336 O -0.256 3.618 2.725 0
M  V30 2337 H -1.091 3.668 3.191 0
M  V30 2338 H -0.166 2.693 2.494 0
M  V30 2339 O 3.639 -10.123 1.558 0
M  V30 2340 H 3.508 -10.962 1.116 0
M  V30 2341 H 3.582 -10.331 2.49 0
M  V30 2342 O -6.878 -11.383 -14.698 0
M  V30 2343 H -7.701 -11.425 -14.211 0
M  V30 2344 H -6.925 -12.116 -15.312 0
M  V30 2345 O 12.589 17.138 10.273 0
M  V30 2346 H 11.754 17.176 9.806 0
M  V30 2347 H 12.349 16.936 11.177 0
M  V30 2348 O 16.442 -1.384 9.408 0
M  V30 2349 H 16.426 -1.525 8.461 0
M  V30 2350 H 16.439 -0.432 9.509 0
M  V30 2351 O -7.365 -6.836 2.81 0
M  V30 2352 H -7.033 -5.969 2.578 0
M  V30 2353 H -6.953 -7.034 3.651 0
M  V30 2354 O -15.1 5.451 4.245 0
M  V30 2355 H -14.278 5.261 4.698 0
M  V30 2356 H -14.897 5.331 3.318 0
M  V30 2357 O 12.967 16.773 -10.602 0
M  V30 2358 H 12.697 17.139 -11.444 0
M  V30 2359 H 12.155 16.699 -10.101 0
M  V30 2360 O 8.918 1.91 -1.36 0
M  V30 2361 H 8.234 1.445 -0.878 0
M  V30 2362 H 9.588 1.247 -1.526 0
M  V30 2363 O 4.012 16.14 -1.544 0
M  V30 2364 H 4.838 16.33 -1.099 0
M  V30 2365 H 3.798 16.948 -2.009 0
M  V30 2366 O -16.659 -12.66 8.565 0
M  V30 2367 H -17.167 -13.417 8.856 0
M  V30 2368 H -16.604 -12.097 9.337 0
M  V30 2369 O -14.911 0.576 6.051 0
M  V30 2370 H -15.458 0.194 5.364 0
M  V30 2371 H -15.339 1.405 6.265 0
M  V30 2372 O 8.508 12.072 -0.443 0
M  V30 2373 H 8.876 12.048 0.44 0
M  V30 2374 H 7.581 11.862 -0.323 0
M  V30 2375 O 17.046 -9.246 6.559 0
M  V30 2376 H 16.129 -9.475 6.708 0
M  V30 2377 H 17.312 -8.789 7.358 0
M  V30 2378 O -5.757 -14.183 8.119 0
M  V30 2379 H -6.217 -13.346 8.167 0
M  V30 2380 H -5.549 -14.291 7.191 0
M  V30 2381 O -13.477 -8.356 -6.14 0
M  V30 2382 H -13.446 -7.503 -5.708 0
M  V30 2383 H -12.803 -8.873 -5.699 0
M  V30 2384 O -14.999 7.849 -4.093 0
M  V30 2385 H -15.766 7.894 -4.664 0
M  V30 2386 H -14.65 8.74 -4.089 0
M  V30 2387 O -4.701 -6.632 -3.201 0
M  V30 2388 H -4.795 -5.702 -2.996 0
M  V30 2389 H -4.218 -6.994 -2.459 0
M  V30 2390 O 12.832 -16.004 7.075 0
M  V30 2391 H 12.89 -16.909 7.379 0
M  V30 2392 H 13.092 -15.479 7.833 0
M  V30 2393 O -12.188 -14.452 2.466 0
M  V30 2394 H -13.026 -14.185 2.843 0
M  V30 2395 H -12.373 -14.577 1.535 0
M  V30 2396 O 3.71 7.963 -6.812 0
M  V30 2397 H 4.104 8.643 -6.266 0
M  V30 2398 H 2.779 8.185 -6.836 0
M  V30 2399 O -14.084 13.98 -10.713 0
M  V30 2400 H -15.031 13.962 -10.569 0
M  V30 2401 H -13.924 14.816 -11.151 0
M  V30 2402 O -0.028 12.108 -4.413 0
M  V30 2403 H 0.828 11.691 -4.507 0
M  V30 2404 H -0.286 12.331 -5.307 0
M  V30 2405 O -6.501 14.615 -11.991 0
M  V30 2406 H -6.355 14.259 -12.868 0
M  V30 2407 H -6.391 13.866 -11.406 0
M  V30 2408 O -15.381 13.323 12.529 0
M  V30 2409 H -14.794 13.905 12.046 0
M  V30 2410 H -16.226 13.417 12.091 0
M  V30 2411 O -6.595 -11.999 -2.15 0
M  V30 2412 H -6.89 -11.387 -1.477 0
M  V30 2413 H -6.692 -11.517 -2.972 0
M  V30 2414 O -0.634 -10.243 8.453 0
M  V30 2415 H -0.571 -10.912 9.135 0
M  V30 2416 H -1.467 -10.423 8.017 0
M  V30 2417 O -16.701 -1.193 -4.059 0
M  V30 2418 H -16.938 -0.338 -4.418 0
M  V30 2419 H -17.001 -1.821 -4.717 0
M  V30 2420 O -11.396 9.222 -12.006 0
M  V30 2421 H -11.675 8.581 -11.352 0
M  V30 2422 H -10.959 9.907 -11.5 0
M  V30 2423 O -16.31 15.969 -5.024 0
M  V30 2424 H -16.681 16.204 -4.174 0
M  V30 2425 H -15.509 16.49 -5.089 0
M  V30 2426 O -10.972 4.89 -0.531 0
M  V30 2427 H -11.212 4.376 -1.301 0
M  V30 2428 H -10.5 4.275 0.031 0
M  V30 2429 O 10.001 14.566 9.816 0
M  V30 2430 H 9.837 15.508 9.862 0
M  V30 2431 H 10.233 14.318 10.711 0
M  V30 2432 O 0.087 -9.971 15.204 0
M  V30 2433 H 0.709 -10.016 15.93 0
M  V30 2434 H -0.722 -9.645 15.6 0
M  V30 2435 O -15.235 2.65 0.392 0
M  V30 2436 H -14.475 3.115 0.742 0
M  V30 2437 H -15.886 3.335 0.239 0
M  V30 2438 O 4.473 4.977 5.85 0
M  V30 2439 H 5.022 4.599 6.537 0
M  V30 2440 H 3.664 4.467 5.881 0
M  V30 2441 O -12.278 4.574 9.845 0
M  V30 2442 H -12.241 3.617 9.833 0
M  V30 2443 H -12.871 4.8 9.129 0
M  V30 2444 O -6.94 -4.573 5.86 0
M  V30 2445 H -7.458 -4.863 6.611 0
M  V30 2446 H -6.326 -5.289 5.7 0
M  V30 2447 O -9.523 -13.269 6.301 0
M  V30 2448 H -9.066 -13.738 5.604 0
M  V30 2449 H -10.314 -13.785 6.458 0
M  V30 2450 O 15.249 1.079 12.08 0
M  V30 2451 H 15.421 1.796 12.691 0
M  V30 2452 H 14.309 0.918 12.158 0
M  V30 2453 O 7.369 -4.423 6.932 0
M  V30 2454 H 8.073 -4.741 7.497 0
M  V30 2455 H 7.034 -3.646 7.38 0
M  V30 2456 O 6.194 10.504 8.702 0
M  V30 2457 H 6.33 11.156 8.015 0
M  V30 2458 H 7.067 10.155 8.878 0
M  V30 2459 O 7.4 2.675 -3.397 0
M  V30 2460 H 6.526 2.501 -3.049 0
M  V30 2461 H 7.987 2.53 -2.655 0
M  V30 2462 O 1.156 -4.862 4.931 0
M  V30 2463 H 1.558 -4.649 5.774 0
M  V30 2464 H 1.258 -5.81 4.85 0
M  V30 2465 O 1.132 10.77 -12.369 0
M  V30 2466 H 0.293 10.607 -11.936 0
M  V30 2467 H 0.948 10.652 -13.301 0
M  V30 2468 O 13.427 0.87 -0.922 0
M  V30 2469 H 14.112 1.084 -1.555 0
M  V30 2470 H 13.654 -0.005 -0.608 0
M  V30 2471 O -16.559 -11.122 -13.787 0
M  V30 2472 H -16.821 -11.658 -14.536 0
M  V30 2473 H -16.881 -10.245 -13.996 0
M  V30 2474 O 8.25 -7.889 4.496 0
M  V30 2475 H 7.564 -8.155 3.884 0
M  V30 2476 H 8.64 -7.111 4.096 0
M  V30 2477 O 8.967 15.765 14.79 0
M  V30 2478 H 8.782 15.469 15.681 0
M  V30 2479 H 8.215 15.466 14.278 0
M  V30 2480 O -8.783 9.686 -10.553 0
M  V30 2481 H -8.438 10.569 -10.418 0
M  V30 2482 H -9.161 9.445 -9.707 0
M  V30 2483 O -7.151 -3.561 10.799 0
M  V30 2484 H -6.985 -3.674 11.735 0
M  V30 2485 H -6.309 -3.746 10.382 0
M  V30 2486 O -9.399 0.419 -4.03 0
M  V30 2487 H -9.777 -0.389 -3.684 0
M  V30 2488 H -10.145 0.9 -4.387 0
M  V30 2489 O -5.812 13.753 1.497 0
M  V30 2490 H -5.836 12.958 0.964 0
M  V30 2491 H -5.302 13.509 2.269 0
M  V30 2492 O 10.035 4.55 -2.696 0
M  V30 2493 H 9.639 4.003 -2.018 0
M  V30 2494 H 9.883 4.072 -3.511 0
M  V30 2495 O 15.281 -6.208 15.602 0
M  V30 2496 H 15.486 -7.126 15.425 0
M  V30 2497 H 14.491 -6.238 16.141 0
M  V30 2498 O -14.426 11.095 2.021 0
M  V30 2499 H -13.813 11.481 2.647 0
M  V30 2500 H -13.87 10.754 1.321 0
M  V30 2501 O -5.794 10.735 6.366 0
M  V30 2502 H -5.604 10.191 7.129 0
M  V30 2503 H -6.468 10.252 5.888 0
M  V30 2504 O -1.139 -9.995 1.211 0
M  V30 2505 H -0.537 -10.738 1.224 0
M  V30 2506 H -0.931 -9.504 2.006 0
M  V30 2507 O 12.363 -1.421 2.056 0
M  V30 2508 H 13.063 -1.565 1.419 0
M  V30 2509 H 12.057 -0.531 1.879 0
M  V30 2510 O -14.414 -12.033 -16.029 0
M  V30 2511 H -13.924 -11.217 -16.124 0
M  V30 2512 H -14.903 -12.115 -16.848 0
M  V30 2513 O -11.194 12.673 -0.933 0
M  V30 2514 H -10.431 13.241 -0.828 0
M  V30 2515 H -11.692 12.789 -0.123 0
M  V30 2516 O 16.741 16.577 -2.442 0
M  V30 2517 H 16.227 16.164 -1.749 0
M  V30 2518 H 16.713 17.512 -2.237 0
M  V30 2519 O 15.876 -11.3 -3.205 0
M  V30 2520 H 15.023 -11.569 -2.864 0
M  V30 2521 H 16.134 -12.009 -3.793 0
M  V30 2522 O 1.608 8.296 4.108 0
M  V30 2523 H 2.308 7.645 4.055 0
M  V30 2524 H 0.813 7.811 3.889 0
M  V30 2525 O -7.918 -7.731 -8.837 0
M  V30 2526 H -8.059 -6.955 -9.38 0
M  V30 2527 H -8.273 -7.493 -7.981 0
M  V30 2528 O 11.474 -2.391 -0.885 0
M  V30 2529 H 11.56 -3.32 -1.1 0
M  V30 2530 H 10.69 -2.344 -0.337 0
M  V30 2531 O 16.828 11.719 14.376 0
M  V30 2532 H 16.85 10.788 14.155 0
M  V30 2533 H 16.242 12.106 13.727 0
M  V30 2534 O -14.729 8.478 -9.971 0
M  V30 2535 H -13.796 8.31 -9.839 0
M  V30 2536 H -14.798 8.738 -10.89 0
M  V30 2537 O -15.179 -14.851 10.918 0
M  V30 2538 H -15.601 -14.981 10.069 0
M  V30 2539 H -15.816 -15.176 11.555 0
M  V30 2540 O -12.019 -12.257 -13.504 0
M  V30 2541 H -12.442 -13.023 -13.115 0
M  V30 2542 H -12.607 -11.53 -13.301 0
M  V30 2543 O 16.925 9.338 -5.839 0
M  V30 2544 H 16.679 9.986 -5.179 0
M  V30 2545 H 17.42 9.835 -6.49 0
M  V30 2546 O 11.976 -7.78 8.184 0
M  V30 2547 H 11.247 -8.131 7.673 0
M  V30 2548 H 11.868 -6.831 8.137 0
M  V30 2549 O -14.93 -13.369 -3.695 0
M  V30 2550 H -14.848 -13.779 -2.834 0
M  V30 2551 H -14.281 -13.818 -4.237 0
M  V30 2552 O 15.73 4.844 -15.018 0
M  V30 2553 H 15.793 5.62 -15.575 0
M  V30 2554 H 16.637 4.641 -14.787 0
M  V30 2555 O -8.425 13.372 -0.068 0
M  V30 2556 H -7.857 13.859 0.529 0
M  V30 2557 H -7.921 13.307 -0.879 0
M  V30 2558 O 14.757 14.807 -9.235 0
M  V30 2559 H 14.354 15.413 -9.857 0
M  V30 2560 H 15.124 15.37 -8.554 0
M  V30 2561 O -12.623 3.427 -9.868 0
M  V30 2562 H -11.876 3.424 -10.466 0
M  V30 2563 H -13.376 3.625 -10.426 0
M  V30 2564 O -2.747 -0.703 -10.176 0
M  V30 2565 H -2.074 -0.658 -9.498 0
M  V30 2566 H -2.624 -1.563 -10.579 0
M  V30 2567 O 3.946 -4.956 0.312 0
M  V30 2568 H 3.284 -4.495 0.826 0
M  V30 2569 H 4.616 -5.203 0.95 0
M  V30 2570 O 15.408 -11.96 12.833 0
M  V30 2571 H 15.656 -11.397 12.1 0
M  V30 2572 H 14.523 -12.255 12.621 0
M  V30 2573 O 13.151 -0.789 12.491 0
M  V30 2574 H 12.428 -0.767 13.118 0
M  V30 2575 H 13.899 -1.103 12.999 0
M  V30 2576 O -2.19 8.389 1.185 0
M  V30 2577 H -2.959 8.193 0.65 0
M  V30 2578 H -1.975 9.297 0.973 0
M  V30 2579 O 3.181 -12.266 0.154 0
M  V30 2580 H 3.955 -12.38 -0.397 0
M  V30 2581 H 2.82 -13.147 0.248 0
M  V30 2582 O -4.353 0.396 5.412 0
M  V30 2583 H -3.7 -0.193 5.032 0
M  V30 2584 H -5.194 -0.007 5.195 0
M  V30 2585 O 10.04 -3.083 11.054 0
M  V30 2586 H 10.928 -3.218 11.386 0
M  V30 2587 H 10.163 -2.797 10.149 0
M  V30 2588 O 2.71 11.77 15.089 0
M  V30 2589 H 2.401 12.32 15.809 0
M  V30 2590 H 3.327 11.163 15.498 0
M  V30 2591 O -0.562 -1.577 7.118 0
M  V30 2592 H 0.118 -2.039 7.609 0
M  V30 2593 H -0.563 -1.996 6.257 0
M  V30 2594 O -8.804 -13.801 -12.944 0
M  V30 2595 H -9.448 -13.408 -13.533 0
M  V30 2596 H -8.091 -13.163 -12.907 0
M  V30 2597 O -5.63 0.222 -2.207 0
M  V30 2598 H -5.918 0.872 -2.848 0
M  V30 2599 H -6.356 0.159 -1.586 0
M  V30 2600 O -2.216 8.971 5.338 0
M  V30 2601 H -2.666 9.573 4.745 0
M  V30 2602 H -1.822 9.538 6.001 0
M  V30 2603 O 9.113 -1.371 1.069 0
M  V30 2604 H 9.191 -0.539 1.537 0
M  V30 2605 H 8.357 -1.254 0.495 0
M  V30 2606 O -2.321 13.627 12.114 0
M  V30 2607 H -2.279 14.467 12.572 0
M  V30 2608 H -2.395 13.861 11.189 0
M  V30 2609 O 6.067 4.704 -15.623 0
M  V30 2610 H 5.305 4.137 -15.74 0
M  V30 2611 H 5.717 5.593 -15.682 0
M  V30 2612 O 11.102 0.125 -1.935 0
M  V30 2613 H 11.802 0.386 -1.336 0
M  V30 2614 H 11.056 -0.827 -1.849 0
M  V30 2615 O 14.841 -3.596 16.377 0
M  V30 2616 H 14.991 -4.469 16.014 0
M  V30 2617 H 13.892 -3.545 16.496 0
M  V30 2618 O -11.632 13.612 -4.42 0
M  V30 2619 H -11.314 12.711 -4.478 0
M  V30 2620 H -11.31 14.032 -5.217 0
M  V30 2621 O -15.211 -6.732 15.509 0
M  V30 2622 H -15.175 -7.352 14.781 0
M  V30 2623 H -15.594 -7.231 16.23 0
M  V30 2624 O -9.909 10.559 15.687 0
M  V30 2625 H -9.09 10.148 15.963 0
M  V30 2626 H -10.001 11.32 16.26 0
M  V30 2627 O -0.392 -7.704 -0.715 0
M  V30 2628 H 0.494 -7.45 -0.457 0
M  V30 2629 H -0.404 -8.657 -0.629 0
M  V30 2630 O -5.009 -1.667 -8.519 0
M  V30 2631 H -4.842 -0.865 -8.024 0
M  V30 2632 H -4.464 -1.584 -9.301 0
M  V30 2633 O -6.356 0.054 12.766 0
M  V30 2634 H -7.084 0.337 12.214 0
M  V30 2635 H -6.338 -0.898 12.672 0
M  V30 2636 O -7.649 -1.315 1.908 0
M  V30 2637 H -7.096 -2.001 2.283 0
M  V30 2638 H -8.537 -1.666 1.962 0
M  V30 2639 O 10.92 6.974 7.082 0
M  V30 2640 H 10.178 7.256 7.618 0
M  V30 2641 H 10.894 6.018 7.122 0
M  V30 2642 O 16.564 -2.075 2.654 0
M  V30 2643 H 15.862 -1.695 2.126 0
M  V30 2644 H 16.172 -2.853 3.052 0
M  V30 2645 O 11.077 6.184 14.575 0
M  V30 2646 H 10.132 6.036 14.561 0
M  V30 2647 H 11.337 6.162 13.654 0
M  V30 2648 O 1.184 14.124 -13.58 0
M  V30 2649 H 1.817 14.21 -12.867 0
M  V30 2650 H 0.348 14.379 -13.19 0
M  V30 2651 O -15.976 13.453 -1.465 0
M  V30 2652 H -15.347 14.125 -1.728 0
M  V30 2653 H -16.736 13.603 -2.027 0
M  V30 2654 O 6.289 0.509 2.708 0
M  V30 2655 H 6.021 1.416 2.853 0
M  V30 2656 H 7.242 0.522 2.8 0
M  V30 2657 O 8.493 12.413 11.919 0
M  V30 2658 H 9.34 12.8 12.139 0
M  V30 2659 H 7.861 12.902 12.446 0
M  V30 2660 O 12.248 -3.696 -15.5 0
M  V30 2661 H 12.549 -2.964 -14.962 0
M  V30 2662 H 11.356 -3.459 -15.752 0
M  V30 2663 O 11.137 -16.91 -12.748 0
M  V30 2664 H 11.006 -17.825 -12.502 0
M  V30 2665 H 10.278 -16.504 -12.631 0
M  V30 2666 O -9.747 3.177 13.56 0
M  V30 2667 H -10.169 3.979 13.87 0
M  V30 2668 H -10.463 2.549 13.469 0
M  V30 2669 O 15.203 -1.936 14.052 0
M  V30 2670 H 15.421 -2.563 14.742 0
M  V30 2671 H 16.051 -1.651 13.711 0
M  V30 2672 O -5.797 1.64 -15.127 0
M  V30 2673 H -5.717 1.236 -15.991 0
M  V30 2674 H -6.326 2.424 -15.277 0
M  V30 2675 O 16.422 1.682 -10.943 0
M  V30 2676 H 16.514 1.062 -10.22 0
M  V30 2677 H 16.041 2.463 -10.542 0
M  V30 2678 O 7.213 15.946 1.744 0
M  V30 2679 H 6.773 15.097 1.765 0
M  V30 2680 H 6.64 16.526 2.246 0
M  V30 2681 O 5.306 -4.077 -2.882 0
M  V30 2682 H 5.436 -4.943 -3.269 0
M  V30 2683 H 5.854 -3.495 -3.408 0
M  V30 2684 O -9.927 -9.339 16.1 0
M  V30 2685 H -10.803 -8.957 16.041 0
M  V30 2686 H -9.755 -9.684 15.224 0
M  V30 2687 O -4.212 12.9 7.39 0
M  V30 2688 H -4.662 13.43 8.049 0
M  V30 2689 H -4.907 12.382 6.984 0
M  V30 2690 O -2.452 -0.959 -13.263 0
M  V30 2691 H -2.154 -0.631 -14.111 0
M  V30 2692 H -1.804 -1.621 -13.021 0
M  V30 2693 O -4.678 0.568 -6.494 0
M  V30 2694 H -3.91 1.129 -6.604 0
M  V30 2695 H -5.011 0.786 -5.623 0
M  V30 2696 O 12.298 -7.324 -3.243 0
M  V30 2697 H 13.148 -7.4 -2.81 0
M  V30 2698 H 12.506 -7.301 -4.177 0
M  V30 2699 O -8.083 1.055 14.781 0
M  V30 2700 H -8.527 1.665 14.193 0
M  V30 2701 H -7.409 0.646 14.238 0
M  V30 2702 O 5.465 -12.739 -1.565 0
M  V30 2703 H 5.902 -11.968 -1.926 0
M  V30 2704 H 6.172 -13.369 -1.42 0
M  V30 2705 O 11.913 1.367 -12.076 0
M  V30 2706 H 12.552 1.194 -12.767 0
M  V30 2707 H 11.852 2.321 -12.038 0
M  V30 2708 O -7.024 11.965 9.219 0
M  V30 2709 H -7.069 11.816 10.163 0
M  V30 2710 H -7.483 11.217 8.836 0
M  V30 2711 O 10.192 -7.865 -16.486 0
M  V30 2712 H 10.896 -8.373 -16.888 0
M  V30 2713 H 10.429 -7.817 -15.56 0
M  V30 2714 O 10.739 -0.204 -8.3 0
M  V30 2715 H 11.663 -0.171 -8.055 0
M  V30 2716 H 10.415 -1.014 -7.904 0
M  V30 2717 O -15.07 6.675 -1.582 0
M  V30 2718 H -15.087 5.725 -1.699 0
M  V30 2719 H -15.088 7.027 -2.472 0
M  V30 2720 O -7.535 -2.494 -15.283 0
M  V30 2721 H -8.182 -2.899 -15.861 0
M  V30 2722 H -7.936 -1.665 -15.019 0
M  V30 2723 O -5.494 -7.149 13.522 0
M  V30 2724 H -5.951 -7.268 14.355 0
M  V30 2725 H -4.605 -7.462 13.69 0
M  V30 2726 O 7.668 -6.918 -9.012 0
M  V30 2727 H 6.713 -6.985 -9.031 0
M  V30 2728 H 7.895 -6.483 -9.834 0
M  V30 2729 O -6.786 6.933 -15.232 0
M  V30 2730 H -7.083 7.232 -14.372 0
M  V30 2731 H -6.978 5.995 -15.239 0
M  V30 2732 O -9.542 -1.524 5.191 0
M  V30 2733 H -10.059 -0.865 5.656 0
M  V30 2734 H -10.068 -1.743 4.422 0
M  V30 2735 O -0.953 -14.477 -16.326 0
M  V30 2736 H -1.69 -14.935 -15.921 0
M  V30 2737 H -0.286 -14.441 -15.64 0
M  V30 2738 O -8.679 2.706 -0.036 0
M  V30 2739 H -7.998 2.073 -0.264 0
M  V30 2740 H -8.74 3.278 -0.801 0
M  V30 2741 O 1.027 5.64 -16.191 0
M  V30 2742 H 1.923 5.338 -16.339 0
M  V30 2743 H 0.509 4.837 -16.138 0
M  V30 2744 O -4.674 -8.162 7.585 0
M  V30 2745 H -4.03 -7.654 8.078 0
M  V30 2746 H -4.81 -8.951 8.109 0
M  V30 2747 O -13.381 -0.766 14.417 0
M  V30 2748 H -14.187 -0.432 14.809 0
M  V30 2749 H -13.413 -1.711 14.569 0
M  V30 2750 O 13.158 -11.745 -2.985 0
M  V30 2751 H 12.261 -11.797 -3.316 0
M  V30 2752 H 13.099 -11.165 -2.226 0
M  V30 2753 O 8.537 6.206 0.76 0
M  V30 2754 H 8.731 6.262 1.696 0
M  V30 2755 H 8.838 7.04 0.402 0
M  V30 2756 O -8.102 -16.257 4.671 0
M  V30 2757 H -8.97 -16.502 4.351 0
M  V30 2758 H -7.547 -17.007 4.458 0
M  V30 2759 O -0.032 11.702 14.464 0
M  V30 2760 H 0.873 11.39 14.457 0
M  V30 2761 H -0.508 11.067 13.929 0
M  V30 2762 O -5.29 -15.436 -6.619 0
M  V30 2763 H -5.01 -14.681 -7.137 0
M  V30 2764 H -5.896 -15.908 -7.19 0
M  V30 2765 O -9.281 11.845 13.342 0
M  V30 2766 H -9.704 11.393 14.073 0
M  V30 2767 H -9.718 11.501 12.563 0
M  V30 2768 O 7.781 -11.863 -4.661 0
M  V30 2769 H 7.324 -11.521 -3.893 0
M  V30 2770 H 7.25 -12.607 -4.945 0
M  V30 2771 O -5.205 -4.976 9.282 0
M  V30 2772 H -4.549 -4.46 8.813 0
M  V30 2773 H -4.7 -5.65 9.737 0
M  V30 2774 O 2.54 4.842 -7.845 0
M  V30 2775 H 2.707 4.823 -6.902 0
M  V30 2776 H 3.368 5.129 -8.229 0
M  V30 2777 O 3.749 -10.888 13.873 0
M  V30 2778 H 3.796 -9.943 14.019 0
M  V30 2779 H 3.354 -11.234 14.673 0
M  V30 2780 O 13.088 -8.272 4.316 0
M  V30 2781 H 13.336 -8.791 5.081 0
M  V30 2782 H 12.243 -8.63 4.046 0
M  V30 2783 O -12.687 -3.757 -5.547 0
M  V30 2784 H -12.994 -3.719 -6.453 0
M  V30 2785 H -11.733 -3.792 -5.619 0
M  V30 2786 O 15.968 -9.023 15.376 0
M  V30 2787 H 15.91 -9.89 15.776 0
M  V30 2788 H 16.805 -9.028 14.912 0
M  V30 2789 O 9.222 11.841 -14.614 0
M  V30 2790 H 8.32 12.036 -14.361 0
M  V30 2791 H 9.737 12.022 -13.828 0
M  V30 2792 O 13.919 9.383 -15.835 0
M  V30 2793 H 13.059 9.755 -15.643 0
M  V30 2794 H 13.743 8.685 -16.467 0
M  V30 2795 O -5.361 -1.79 16.515 0
M  V30 2796 H -5.982 -2.14 17.154 0
M  V30 2797 H -5.38 -2.417 15.792 0
M  V30 2798 O 5.645 -12.663 -12.786 0
M  V30 2799 H 5.99 -12.625 -11.893 0
M  V30 2800 H 6.295 -12.2 -13.314 0
M  V30 2801 O -10.482 7.548 16.123 0
M  V30 2802 H -11.254 8.068 15.902 0
M  V30 2803 H -10.153 7.938 16.933 0
M  V30 2804 O 6.854 7.176 -2.881 0
M  V30 2805 H 7.793 7.196 -2.697 0
M  V30 2806 H 6.601 6.264 -2.734 0
M  V30 2807 O -5.929 -7.766 16.107 0
M  V30 2808 H -5.264 -8.45 16.019 0
M  V30 2809 H -6.565 -8.128 16.724 0
M  V30 2810 O -7.478 15.692 -3.61 0
M  V30 2811 H -6.573 15.569 -3.899 0
M  V30 2812 H -7.405 15.906 -2.68 0
M  V30 2813 O -7.225 16.103 7.194 0
M  V30 2814 H -6.818 15.486 7.802 0
M  V30 2815 H -7.472 16.85 7.739 0
M  V30 2816 O -4.547 15.774 5.276 0
M  V30 2817 H -5.416 15.665 5.661 0
M  V30 2818 H -4.713 16.145 4.41 0
M  V30 2819 O -15.404 -3.667 14.375 0
M  V30 2820 H -14.851 -3.617 13.595 0
M  V30 2821 H -15.192 -4.515 14.766 0
M  V30 2822 O -16.389 2.188 13.689 0
M  V30 2823 H -16.268 3.026 14.136 0
M  V30 2824 H -16.161 1.53 14.346 0
M  V30 2825 O -10.442 -2.234 2.516 0
M  V30 2826 H -10.938 -2.68 1.829 0
M  V30 2827 H -11.108 -1.804 3.053 0
M  V30 2828 O 2.684 -14.492 10.198 0
M  V30 2829 H 1.736 -14.605 10.137 0
M  V30 2830 H 2.802 -13.801 10.85 0
M  V30 2831 O -17.013 -2.584 -6.216 0
M  V30 2832 H -16.142 -2.597 -6.613 0
M  V30 2833 H -17.352 -3.468 -6.355 0
M  V30 2834 O 11.672 14.443 -12.256 0
M  V30 2835 H 12.558 14.199 -12.525 0
M  V30 2836 H 11.228 13.608 -12.108 0
M  V30 2837 O -12.506 -1.285 4.013 0
M  V30 2838 H -13.081 -2.049 4.05 0
M  V30 2839 H -13.092 -0.538 4.13 0
M  V30 2840 O 15.495 -2.25 -10.62 0
M  V30 2841 H 14.82 -1.594 -10.45 0
M  V30 2842 H 15.81 -2.049 -11.501 0
M  V30 2843 O 7.164 15.194 7.652 0
M  V30 2844 H 7.67 14.42 7.902 0
M  V30 2845 H 7.692 15.617 6.975 0
M  V30 2846 O -5.92 11.017 -3.465 0
M  V30 2847 H -6.216 10.232 -3.925 0
M  V30 2848 H -5.12 10.744 -3.016 0
M  V30 2849 O 13.048 -15.57 -14.861 0
M  V30 2850 H 12.559 -15.968 -15.581 0
M  V30 2851 H 12.58 -15.844 -14.072 0
M  V30 2852 O 8.96 14.686 -9.777 0
M  V30 2853 H 9.287 13.815 -9.551 0
M  V30 2854 H 9.594 15.288 -9.387 0
M  V30 2855 O -7.009 -10.815 0.482 0
M  V30 2856 H -6.514 -10.035 0.232 0
M  V30 2857 H -6.39 -11.339 0.99 0
M  V30 2858 O 13.702 -2.868 10.635 0
M  V30 2859 H 14.434 -2.444 10.187 0
M  V30 2860 H 13.222 -2.149 11.045 0
M  V30 2861 O 4.838 15.222 15.998 0
M  V30 2862 H 4.163 15.267 15.32 0
M  V30 2863 H 5.318 14.417 15.806 0
M  V30 2864 O 9.193 -10.679 -6.694 0
M  V30 2865 H 8.911 -11.162 -5.917 0
M  V30 2866 H 10.146 -10.77 -6.7 0
M  V30 2867 O 4.551 -9.157 -1.142 0
M  V30 2868 H 3.917 -8.658 -1.657 0
M  V30 2869 H 4.083 -9.382 -0.338 0
M  V30 2870 O -10.528 -9.314 -0.224 0
M  V30 2871 H -9.813 -9.443 0.399 0
M  V30 2872 H -10.955 -8.508 0.064 0
M  V30 2873 O -7.948 -9.9 10.334 0
M  V30 2874 H -7.677 -9.234 10.966 0
M  V30 2875 H -7.866 -10.728 10.808 0
M  V30 2876 O -7.429 -8.073 -2.921 0
M  V30 2877 H -7.351 -8.799 -3.54 0
M  V30 2878 H -6.754 -7.451 -3.195 0
M  V30 2879 O 10.387 5.484 -13.411 0
M  V30 2880 H 9.928 5.707 -14.221 0
M  V30 2881 H 9.707 5.497 -12.738 0
M  V30 2882 O -6.661 -9.24 -10.82 0
M  V30 2883 H -7.183 -8.703 -10.225 0
M  V30 2884 H -6.383 -8.636 -11.508 0
M  V30 2885 O 14.574 10.209 -11.109 0
M  V30 2886 H 15.06 10.422 -10.312 0
M  V30 2887 H 14.991 9.412 -11.438 0
M  V30 2888 O -12.421 -5.263 -10.628 0
M  V30 2889 H -12.042 -5.865 -11.268 0
M  V30 2890 H -11.837 -4.505 -10.636 0
M  V30 2891 O -9.65 -15.488 8.948 0
M  V30 2892 H -8.712 -15.605 9.099 0
M  V30 2893 H -9.837 -14.608 9.274 0
M  V30 2894 O 4.844 9.158 -9.758 0
M  V30 2895 H 5.129 8.399 -9.25 0
M  V30 2896 H 4.025 8.879 -10.168 0
M  V30 2897 O 6.389 5.737 -13.021 0
M  V30 2898 H 6.483 5.464 -13.934 0
M  V30 2899 H 6.16 4.933 -12.553 0
M  V30 2900 O -13.98 10.954 -3.98 0
M  V30 2901 H -13.839 11.263 -3.085 0
M  V30 2902 H -14.463 11.663 -4.405 0
M  V30 2903 O 2.676 12.198 5.617 0
M  V30 2904 H 2.727 13.131 5.411 0
M  V30 2905 H 2.234 12.163 6.465 0
M  V30 2906 O 6.174 12.59 15.815 0
M  V30 2907 H 6.614 12.345 16.629 0
M  V30 2908 H 6.056 11.763 15.348 0
M  V30 2909 O 11.618 1.825 -4.671 0
M  V30 2910 H 11.505 1.317 -3.868 0
M  V30 2911 H 11.825 2.709 -4.367 0
M  V30 2912 O -16.772 1.304 -4.886 0
M  V30 2913 H -17.383 1.437 -5.611 0
M  V30 2914 H -15.997 1.812 -5.129 0
M  V30 2915 O -11.093 -7.603 -9.239 0
M  V30 2916 H -11.039 -7.426 -8.3 0
M  V30 2917 H -11.675 -6.922 -9.579 0
M  V30 2918 O -13.747 -1.264 -4.691 0
M  V30 2919 H -14.465 -1.695 -4.228 0
M  V30 2920 H -13.081 -1.945 -4.789 0
M  V30 2921 O 0.826 5.002 0.389 0
M  V30 2922 H 0.046 5.514 0.173 0
M  V30 2923 H 0.573 4.495 1.161 0
M  V30 2924 O -12.728 1.683 9.359 0
M  V30 2925 H -12.252 1.131 9.981 0
M  V30 2926 H -13.412 1.113 9.008 0
M  V30 2927 O 16.722 -8.306 -11.333 0
M  V30 2928 H 17.342 -8.194 -10.612 0
M  V30 2929 H 16.246 -9.109 -11.116 0
M  V30 2930 O -15.994 13.111 -4.926 0
M  V30 2931 H -16.81 12.629 -4.79 0
M  V30 2932 H -16.244 14.032 -4.842 0
M  V30 2933 O -13.257 -3.95 4.7 0
M  V30 2934 H -12.322 -4.049 4.521 0
M  V30 2935 H -13.683 -4.557 4.095 0
M  V30 2936 O 10.928 -4.75 5.421 0
M  V30 2937 H 11.769 -5.208 5.449 0
M  V30 2938 H 11.151 -3.831 5.567 0
M  V30 2939 O -3.958 -4.459 2.776 0
M  V30 2940 H -4.07 -4.375 1.829 0
M  V30 2941 H -3.085 -4.837 2.881 0
M  V30 2942 O -16.445 12.429 4.994 0
M  V30 2943 H -15.633 11.995 5.253 0
M  V30 2944 H -16.389 12.496 4.041 0
M  V30 2945 O -8.707 2.335 -16.084 0
M  V30 2946 H -9.655 2.267 -15.97 0
M  V30 2947 H -8.543 1.965 -16.952 0
M  V30 2948 O -1.153 -15.864 -13.683 0
M  V30 2949 H -1.443 -15.038 -13.296 0
M  V30 2950 H -0.222 -15.917 -13.466 0
M  V30 2951 O -10.683 -7.494 -12.244 0
M  V30 2952 H -11.597 -7.606 -12.506 0
M  V30 2953 H -10.601 -8 -11.436 0
M  V30 2954 O 15.006 16.153 10.496 0
M  V30 2955 H 14.071 16.334 10.395 0
M  V30 2956 H 15.215 15.561 9.773 0
M  V30 2957 O 0.222 16.467 0.265 0
M  V30 2958 H 0.952 15.868 0.111 0
M  V30 2959 H 0.544 17.071 0.934 0
M  V30 2960 O 6.843 -15.129 -14.993 0
M  V30 2961 H 7.413 -15.376 -14.265 0
M  V30 2962 H 6.167 -15.806 -15.01 0
M  V30 2963 O 16.302 7.459 -15.997 0
M  V30 2964 H 16.909 7.735 -15.309 0
M  V30 2965 H 15.498 7.945 -15.816 0
M  V30 2966 O -5.681 11.114 -0.294 0
M  V30 2967 H -5.996 11.81 -0.87 0
M  V30 2968 H -4.89 10.787 -0.723 0
M  V30 2969 O 9.88 -5.413 7.893 0
M  V30 2970 H 10.674 -5.022 8.258 0
M  V30 2971 H 9.935 -5.236 6.954 0
M  V30 2972 O -10.845 -12.062 -0.263 0
M  V30 2973 H -11.671 -12.094 0.218 0
M  V30 2974 H -10.639 -11.129 -0.325 0
M  V30 2975 O 8.416 -6.41 -14.031 0
M  V30 2976 H 7.941 -6.028 -14.769 0
M  V30 2977 H 8.371 -7.355 -14.18 0
M  V30 2978 O -10.609 11.006 -2.835 0
M  V30 2979 H -10.21 10.349 -2.265 0
M  V30 2980 H -10.886 11.704 -2.241 0
M  V30 2981 O -10.349 14.677 -6.821 0
M  V30 2982 H -10.509 14.489 -7.746 0
M  V30 2983 H -10.527 15.613 -6.732 0
M  V30 2984 O 3.005 -12.171 -13.198 0
M  V30 2985 H 3.887 -12.541 -13.156 0
M  V30 2986 H 3.139 -11.258 -13.45 0
M  V30 2987 O -7.75 -4.191 -3.01 0
M  V30 2988 H -8.445 -3.548 -2.867 0
M  V30 2989 H -7.975 -4.606 -3.843 0
M  V30 2990 O 13.254 -14.695 -0.937 0
M  V30 2991 H 13.416 -13.871 -0.477 0
M  V30 2992 H 13.626 -15.366 -0.365 0
M  V30 2993 O 9.868 2.278 -7.074 0
M  V30 2994 H 9.884 1.434 -7.524 0
M  V30 2995 H 10.372 2.134 -6.274 0
M  V30 2996 O -16.203 -5.06 -15.056 0
M  V30 2997 H -16.594 -4.522 -14.368 0
M  V30 2998 H -16.788 -4.952 -15.806 0
M  V30 2999 O -3.989 11.512 12.761 0
M  V30 3000 H -3.301 12.005 12.315 0
M  V30 3001 H -4.448 12.165 13.289 0
M  V30 3002 O 2.861 7.704 8.74 0
M  V30 3003 H 2.361 7.065 9.249 0
M  V30 3004 H 2.474 7.67 7.865 0
M  V30 3005 O 4.098 11.052 -12.289 0
M  V30 3006 H 3.29 11.067 -12.803 0
M  V30 3007 H 3.803 11.044 -11.379 0
M  V30 3008 O 3.79 6.338 3.571 0
M  V30 3009 H 3.775 6.054 4.485 0
M  V30 3010 H 4.615 6.814 3.481 0
M  V30 3011 O -13.855 8.772 -0.058 0
M  V30 3012 H -13.86 9.682 -0.353 0
M  V30 3013 H -14.352 8.3 -0.727 0
M  V30 3014 O 4.629 16.991 -15.216 0
M  V30 3015 H 3.94 17.518 -15.621 0
M  V30 3016 H 4.862 16.346 -15.884 0
M  V30 3017 O 8.656 -7.875 -0.054 0
M  V30 3018 H 8.862 -7.836 -0.988 0
M  V30 3019 H 7.799 -7.457 0.021 0
M  V30 3020 O -6.493 12.6 4.336 0
M  V30 3021 H -6.322 12.004 3.607 0
M  V30 3022 H -5.78 12.435 4.953 0
M  V30 3023 O -11.777 13.869 -14.027 0
M  V30 3024 H -11.834 14.778 -13.731 0
M  V30 3025 H -11.017 13.515 -13.565 0
M  V30 3026 O -9.836 -9.952 -9.925 0
M  V30 3027 H -9.059 -9.907 -9.367 0
M  V30 3028 H -10.337 -9.167 -9.702 0
M  V30 3029 O -13.299 -11.897 7.76 0
M  V30 3030 H -13.547 -11.006 7.511 0
M  V30 3031 H -13.771 -12.458 7.145 0
M  V30 3032 O -10.257 -6.876 -6.647 0
M  V30 3033 H -9.542 -6.245 -6.563 0
M  V30 3034 H -10.399 -7.197 -5.756 0
M  V30 3035 O -14.53 -11.303 -5.68 0
M  V30 3036 H -14.782 -12.011 -5.088 0
M  V30 3037 H -15.314 -10.757 -5.748 0
M  V30 3038 O -7.141 7.627 14.492 0
M  V30 3039 H -6.226 7.884 14.379 0
M  V30 3040 H -7.472 8.211 15.173 0
M  V30 3041 O -13.007 16.475 -11.62 0
M  V30 3042 H -13.808 16.981 -11.76 0
M  V30 3043 H -12.35 16.909 -12.164 0
M  V30 3044 O -8.318 -5.875 -0.313 0
M  V30 3045 H -8.362 -5.355 -1.116 0
M  V30 3046 H -7.782 -6.633 -0.547 0
M  V30 3047 O -14.978 -14.599 -1.217 0
M  V30 3048 H -15.57 -13.888 -0.97 0
M  V30 3049 H -14.969 -15.178 -0.455 0
M  V30 3050 O 15.72 -3.616 -13.73 0
M  V30 3051 H 15.497 -4.379 -13.196 0
M  V30 3052 H 14.989 -3.53 -14.342 0
M  V30 3053 O -1.4 0.112 -16.021 0
M  V30 3054 H -0.559 -0.262 -16.283 0
M  V30 3055 H -1.668 0.645 -16.769 0
M  V30 3056 O -6.992 11.596 -7.606 0
M  V30 3057 H -7.62 10.946 -7.292 0
M  V30 3058 H -6.644 11.998 -6.811 0
M  V30 3059 O -9.634 14.528 -9.859 0
M  V30 3060 H -9.407 15.332 -9.392 0
M  V30 3061 H -10.572 14.417 -9.704 0
M  V30 3062 O 2.448 8.696 -10.685 0
M  V30 3063 H 1.759 8.515 -10.046 0
M  V30 3064 H 2.115 9.435 -11.194 0
M  V30 3065 O -0.543 -10.656 -2.262 0
M  V30 3066 H 0.091 -10.639 -2.979 0
M  V30 3067 H -1.395 -10.597 -2.694 0
M  V30 3068 O -15.487 10.466 -7.779 0
M  V30 3069 H -14.723 10.646 -7.231 0
M  V30 3070 H -15.158 9.89 -8.469 0
M  V30 3071 O 15.037 4.824 14.628 0
M  V30 3072 H 14.865 4.446 13.765 0
M  V30 3073 H 15.991 4.896 14.672 0
M  V30 3074 O 0.699 -11.044 -9.077 0
M  V30 3075 H 0.41 -11.956 -9.106 0
M  V30 3076 H -0.03 -10.549 -9.45 0
M  V30 3077 O -7.684 -0.089 -0.695 0
M  V30 3078 H -8.329 -0.54 -1.239 0
M  V30 3079 H -7.764 -0.501 0.164 0
M  V30 3080 O -10.824 14.263 11.454 0
M  V30 3081 H -10.293 13.469 11.506 0
M  V30 3082 H -10.638 14.621 10.586 0
M  V30 3083 O 14.188 -9.664 -5.449 0
M  V30 3084 H 13.87 -8.764 -5.517 0
M  V30 3085 H 14.502 -9.74 -4.548 0
M  V30 3086 O -15.006 -2.825 -2.539 0
M  V30 3087 H -15.774 -2.371 -2.884 0
M  V30 3088 H -15.364 -3.557 -2.037 0
M  V30 3089 O 2.564 -16.533 5.212 0
M  V30 3090 H 1.984 -17.295 5.185 0
M  V30 3091 H 2.609 -16.299 6.139 0
M  V30 3092 O -9.116 -12.215 -5.178 0
M  V30 3093 H -8.494 -12.917 -4.985 0
M  V30 3094 H -9.656 -12.15 -4.391 0
M  V30 3095 O -12.227 0.996 -8.42 0
M  V30 3096 H -12.476 0.379 -9.108 0
M  V30 3097 H -12.225 1.85 -8.852 0
M  V30 3098 O -6.607 10.038 11.249 0
M  V30 3099 H -7.443 9.609 11.434 0
M  V30 3100 H -6.059 9.831 12.006 0
M  V30 3101 O -4.604 16.918 2.729 0
M  V30 3102 H -3.822 16.494 2.374 0
M  V30 3103 H -4.488 17.846 2.522 0
M  V30 3104 O -13.146 3.216 14.916 0
M  V30 3105 H -12.93 3.74 14.145 0
M  V30 3106 H -13.586 3.827 15.506 0
M  V30 3107 O 15.628 4.527 -4.922 0
M  V30 3108 H 15.933 5.154 -5.578 0
M  V30 3109 H 15.343 3.768 -5.431 0
M  V30 3110 O 8.892 3.066 14.945 0
M  V30 3111 H 9.832 2.914 14.843 0
M  V30 3112 H 8.799 4.018 14.927 0
M  V30 3113 O 8.427 -15.774 -12.951 0
M  V30 3114 H 8.154 -16.69 -12.902 0
M  V30 3115 H 8.132 -15.392 -12.124 0
M  V30 3116 O -1.256 10.881 -11.095 0
M  V30 3117 H -1.379 10.147 -10.493 0
M  V30 3118 H -1.718 11.61 -10.682 0
M  V30 3119 O -11.357 -16.246 -13.456 0
M  V30 3120 H -10.402 -16.177 -13.435 0
M  V30 3121 H -11.591 -16.061 -14.365 0
M  V30 3122 O 3.773 9.575 -3.81 0
M  V30 3123 H 3.108 8.931 -3.566 0
M  V30 3124 H 3.957 10.049 -2.999 0
M  V30 3125 O -3.271 -11.098 7.093 0
M  V30 3126 H -3.905 -10.788 6.446 0
M  V30 3127 H -3.426 -12.041 7.149 0
M  V30 3128 O 12.959 9.349 -2.141 0
M  V30 3129 H 12.048 9.558 -1.932 0
M  V30 3130 H 13.195 8.66 -1.519 0
M  V30 3131 O -11.282 -15.442 6.549 0
M  V30 3132 H -10.943 -15.584 7.433 0
M  V30 3133 H -12.222 -15.314 6.669 0
M  V30 3134 O -8.291 5.044 1.385 0
M  V30 3135 H -8.373 4.099 1.259 0
M  V30 3136 H -7.868 5.137 2.238 0
M  V30 3137 O -4.779 -10.25 -8.969 0
M  V30 3138 H -5.632 -9.99 -9.314 0
M  V30 3139 H -4.231 -9.472 -9.073 0
M  V30 3140 O -0.753 -15.024 14.243 0
M  V30 3141 H -0.45 -14.188 13.888 0
M  V30 3142 H -0.726 -14.906 15.192 0
M  V30 3143 O -14.082 -8.291 11.853 0
M  V30 3144 H -13.163 -8.353 11.593 0
M  V30 3145 H -14.33 -7.389 11.647 0
M  V30 3146 O -12.866 4.283 -13.755 0
M  V30 3147 H -13.014 5.132 -14.173 0
M  V30 3148 H -12.056 4.398 -13.258 0
M  V30 3149 O -10.582 -12.902 9.308 0
M  V30 3150 H -9.964 -12.655 9.995 0
M  V30 3151 H -11.416 -12.525 9.588 0
M  V30 3152 O -10.418 -5.474 -3.24 0
M  V30 3153 H -10.694 -5.766 -2.371 0
M  V30 3154 H -10.142 -6.275 -3.686 0
M  V30 3155 O 11.381 -0.349 4.556 0
M  V30 3156 H 11.794 0.382 5.016 0
M  V30 3157 H 11.986 -0.556 3.844 0
M  V30 3158 O -7.676 -5.1 -5.652 0
M  V30 3159 H -6.881 -4.625 -5.895 0
M  V30 3160 H -8.39 -4.5 -5.868 0
M  V30 3161 O 5.222 -0.18 12.21 0
M  V30 3162 H 6.014 -0.465 11.755 0
M  V30 3163 H 4.91 -0.964 12.663 0
M  V30 3164 O 2.373 2.271 -13.89 0
M  V30 3165 H 2.682 2.066 -13.008 0
M  V30 3166 H 2.249 1.417 -14.305 0
M  V30 3167 O 13.218 -14.236 10.235 0
M  V30 3168 H 12.804 -13.848 11.005 0
M  V30 3169 H 13.111 -15.18 10.354 0
M  V30 3170 O -11.274 -7.722 10.791 0
M  V30 3171 H -11.309 -8.671 10.908 0
M  V30 3172 H -10.653 -7.421 11.455 0
M  V30 3173 O 16.107 11.244 -4.018 0
M  V30 3174 H 16.156 10.937 -3.112 0
M  V30 3175 H 15.344 11.821 -4.035 0
M  V30 3176 O -13.682 -2.908 12.155 0
M  V30 3177 H -12.801 -3.016 11.797 0
M  V30 3178 H -13.985 -2.072 11.8 0
M  V30 3179 O 12.314 -6.669 -6.1 0
M  V30 3180 H 11.5 -7.054 -6.424 0
M  V30 3181 H 12.543 -6.007 -6.752 0
M  V30 3182 O 16.119 -14.965 9.776 0
M  V30 3183 H 16.246 -15.554 10.52 0
M  V30 3184 H 15.274 -14.546 9.943 0
M  V30 3185 O -1.21 -8.169 -9.057 0
M  V30 3186 H -2.021 -7.748 -9.344 0
M  V30 3187 H -1.438 -8.586 -8.225 0
M  V30 3188 O -7.011 12.959 12.276 0
M  V30 3189 H -7.86 12.627 12.569 0
M  V30 3190 H -6.474 12.175 12.161 0
M  V30 3191 O 6.053 -9.47 12.27 0
M  V30 3192 H 6.943 -9.164 12.44 0
M  V30 3193 H 5.5 -8.707 12.439 0
M  V30 3194 O -3.602 -10.663 0.342 0
M  V30 3195 H -2.727 -10.407 0.631 0
M  V30 3196 H -4.009 -9.846 0.054 0
M  V30 3197 O 12.013 -17.206 -1.527 0
M  V30 3198 H 12.103 -16.595 -2.258 0
M  V30 3199 H 12.147 -16.668 -0.747 0
M  V30 3200 O 1.064 -14.899 -8.861 0
M  V30 3201 H 1.396 -14.426 -9.625 0
M  V30 3202 H 0.755 -15.734 -9.212 0
M  V30 3203 O -16.129 -1.749 -14.124 0
M  V30 3204 H -16.18 -1.629 -15.073 0
M  V30 3205 H -16.988 -2.094 -13.88 0
M  V30 3206 O -16.199 -6.183 5.705 0
M  V30 3207 H -15.298 -6.432 5.501 0
M  V30 3208 H -16.253 -6.238 6.659 0
M  V30 3209 O -0.511 -2.81 -12.663 0
M  V30 3210 H -0.229 -3.303 -13.434 0
M  V30 3211 H -1.354 -3.196 -12.427 0
M  V30 3212 O 9.702 -7.754 -7.455 0
M  V30 3213 H 9.519 -8.579 -7.005 0
M  V30 3214 H 8.956 -7.63 -8.041 0
M  V30 3215 O 12.512 4.573 12.554 0
M  V30 3216 H 11.988 3.934 12.071 0
M  V30 3217 H 12.823 5.183 11.885 0
M  V30 3218 O 7.342 -12.442 9.714 0
M  V30 3219 H 6.586 -12.537 10.295 0
M  V30 3220 H 7.228 -11.581 9.312 0
M  V30 3221 O -13.468 -9.123 1.134 0
M  V30 3222 H -12.594 -8.924 1.472 0
M  V30 3223 H -13.805 -8.28 0.83 0
M  V30 3224 O -5.712 15.948 16.006 0
M  V30 3225 H -5.773 16.304 15.12 0
M  V30 3226 H -5.648 16.718 16.571 0
M  V30 3227 O 10.671 -9.697 -10.177 0
M  V30 3228 H 10.492 -10.14 -11.007 0
M  V30 3229 H 10.076 -8.947 -10.173 0
M  V30 3230 O -10.983 12.12 -10.283 0
M  V30 3231 H -10.641 12.592 -11.042 0
M  V30 3232 H -11.515 12.766 -9.818 0
M  V30 3233 O -10.838 10.164 -8.104 0
M  V30 3234 H -11.219 10.514 -8.909 0
M  V30 3235 H -11.592 9.945 -7.557 0
M  V30 3236 O 15.656 12.75 0.56 0
M  V30 3237 H 14.806 12.378 0.324 0
M  V30 3238 H 16.184 12.663 -0.234 0
M  V30 3239 O -2.772 -15.134 1.134 0
M  V30 3240 H -2.307 -15.312 1.952 0
M  V30 3241 H -2.653 -14.196 0.99 0
M  V30 3242 O 6.289 -0.067 -14.472 0
M  V30 3243 H 6.768 0.429 -15.136 0
M  V30 3244 H 6.542 0.338 -13.642 0
M  V30 3245 O 5.927 4.028 -9.589 0
M  V30 3246 H 5.565 4.845 -9.247 0
M  V30 3247 H 6.787 3.955 -9.174 0
M  V30 3248 O 10.002 -14.238 12.246 0
M  V30 3249 H 9.098 -14.542 12.332 0
M  V30 3250 H 10.45 -14.599 13.011 0
M  V30 3251 O 11.365 16.439 12.506 0
M  V30 3252 H 10.477 16.552 12.845 0
M  V30 3253 H 11.914 16.958 13.094 0
M  V30 3254 O 3.173 1.515 15.205 0
M  V30 3255 H 3.146 1.925 14.34 0
M  V30 3256 H 4.015 1.061 15.229 0
M  V30 3257 O 6.78 14.302 13.398 0
M  V30 3258 H 6.018 14.85 13.21 0
M  V30 3259 H 6.514 13.771 14.149 0
M  V30 3260 O 10.174 -0.676 -11.057 0
M  V30 3261 H 10.537 -0.02 -11.652 0
M  V30 3262 H 10.192 -0.256 -10.197 0
M  V30 3263 O 13.632 -12.022 8.165 0
M  V30 3264 H 13.497 -11.372 8.855 0
M  V30 3265 H 13.449 -12.862 8.587 0
M  V30 3266 O 1.966 -17.025 16.658 0
M  V30 3267 H 1.103 -17.248 17.007 0
M  V30 3268 H 1.783 -16.603 15.818 0
M  V30 3269 O -7.438 -16.881 -7.764 0
M  V30 3270 H -7.967 -16.469 -8.447 0
M  V30 3271 H -8.043 -17.001 -7.032 0
M  V30 3272 O -14.368 12.401 -13.928 0
M  V30 3273 H -13.557 12.794 -14.252 0
M  V30 3274 H -14.752 13.073 -13.365 0
M  V30 3275 O -2.651 4.166 10.719 0
M  V30 3276 H -2.294 4.9 10.22 0
M  V30 3277 H -2.3 3.387 10.287 0
M  V30 3278 O 15.141 -14.179 14.326 0
M  V30 3279 H 15.518 -13.457 13.823 0
M  V30 3280 H 14.791 -13.764 15.115 0
M  V30 3281 O -15.897 2.822 7.042 0
M  V30 3282 H -16.754 3.205 7.229 0
M  V30 3283 H -15.273 3.52 7.241 0
M  V30 3284 O -9.867 -2.523 -3.007 0
M  V30 3285 H -10.145 -1.856 -2.379 0
M  V30 3286 H -10.599 -3.14 -3.041 0
M  V30 3287 O 16.255 -16.744 15.019 0
M  V30 3288 H 16.908 -16.691 15.716 0
M  V30 3289 H 15.809 -15.898 15.042 0
M  V30 3290 O -5.785 -9.535 2.835 0
M  V30 3291 H -6.451 -8.867 2.676 0
M  V30 3292 H -4.959 -9.052 2.848 0
M  V30 3293 O -2.968 -8.092 -15.969 0
M  V30 3294 H -2.958 -8.88 -16.511 0
M  V30 3295 H -2.425 -7.465 -16.447 0
M  V30 3296 O -6.161 2.672 7.358 0
M  V30 3297 H -6.654 3.419 7.018 0
M  V30 3298 H -6.361 1.957 6.753 0
M  V30 3299 O 9.015 0.775 2.916 0
M  V30 3300 H 9.109 1.615 2.468 0
M  V30 3301 H 9.776 0.726 3.496 0
M  V30 3302 O 13.928 10.386 -8.055 0
M  V30 3303 H 14.151 11.251 -8.398 0
M  V30 3304 H 13.687 10.544 -7.142 0
M  V30 3305 O -3.348 -8.223 3.703 0
M  V30 3306 H -3.058 -8.062 2.805 0
M  V30 3307 H -2.585 -8.017 4.242 0
M  V30 3308 O 4.029 -12.763 -9.563 0
M  V30 3309 H 4.138 -13.664 -9.865 0
M  V30 3310 H 3.334 -12.407 -10.117 0
M  V30 3311 O -11.604 -7.694 2.428 0
M  V30 3312 H -11.028 -6.996 2.115 0
M  V30 3313 H -11.233 -7.949 3.273 0
M  V30 3314 O -15.152 -5.578 -11.096 0
M  V30 3315 H -15.763 -5.123 -10.516 0
M  V30 3316 H -14.286 -5.323 -10.779 0
M  V30 3317 O -5.619 5.238 9.46 0
M  V30 3318 H -5.02 5.323 10.202 0
M  V30 3319 H -5.977 4.354 9.539 0
M  V30 3320 O -16.016 -12.067 14.896 0
M  V30 3321 H -16.571 -12.837 14.775 0
M  V30 3322 H -15.717 -11.846 14.013 0
M  V30 3323 O -13.467 11.096 12.962 0
M  V30 3324 H -14.307 11.499 12.742 0
M  V30 3325 H -13.522 10.925 13.902 0
M  V30 3326 O 4.218 -13.708 7.524 0
M  V30 3327 H 4.77 -14.329 7.049 0
M  V30 3328 H 4.392 -13.89 8.447 0
M  V30 3329 O -7.398 11.125 -13.678 0
M  V30 3330 H -6.828 10.709 -13.03 0
M  V30 3331 H -7.481 10.476 -14.376 0
M  V30 3332 O 9.366 14.519 -15.527 0
M  V30 3333 H 9.571 13.592 -15.648 0
M  V30 3334 H 9.35 14.639 -14.577 0
M  V30 3335 O -14.387 5.126 8.054 0
M  V30 3336 H -14.281 6.053 7.839 0
M  V30 3337 H -13.782 4.673 7.467 0
M  V30 3338 O -15.671 -4.789 -0.853 0
M  V30 3339 H -15.584 -4.115 -0.178 0
M  V30 3340 H -15.685 -5.614 -0.367 0
M  V30 3341 O -5.752 15.593 11.931 0
M  V30 3342 H -6.013 14.783 12.369 0
M  V30 3343 H -5.529 16.191 12.645 0
M  V30 3344 O 11.567 -9.963 12.891 0
M  V30 3345 H 11.84 -9.797 11.989 0
M  V30 3346 H 10.612 -9.894 12.87 0
M  V30 3347 O -4.974 10.869 16.388 0
M  V30 3348 H -5.374 11.414 15.71 0
M  V30 3349 H -4.055 11.134 16.399 0
M  V30 3350 O -9.623 -13.567 12.123 0
M  V30 3351 H -9.742 -14.489 12.347 0
M  V30 3352 H -10.414 -13.136 12.447 0
M  V30 3353 O -10.791 13.07 -16.445 0
M  V30 3354 H -11.574 13.045 -16.996 0
M  V30 3355 H -11.114 13.334 -15.583 0
M  V30 3356 O -14.58 7.98 7.59 0
M  V30 3357 H -14.928 8.735 8.065 0
M  V30 3358 H -13.659 8.195 7.44 0
M  V30 3359 O 12.31 1.979 5.735 0
M  V30 3360 H 13.006 2.562 5.432 0
M  V30 3361 H 11.774 2.524 6.311 0
M  V30 3362 O -12.389 15.387 7.277 0
M  V30 3363 H -13.266 15.339 6.895 0
M  V30 3364 H -11.881 15.898 6.648 0
M  V30 3365 O -0.837 -5.354 -10.06 0
M  V30 3366 H -1.74 -5.05 -10.149 0
M  V30 3367 H -0.916 -6.251 -9.736 0
M  V30 3368 O -8.664 7.977 11.852 0
M  V30 3369 H -9.549 8.185 12.151 0
M  V30 3370 H -8.172 7.808 12.655 0
M  V30 3371 O 10.157 -12.286 -11.756 0
M  V30 3372 H 10.059 -12.741 -10.92 0
M  V30 3373 H 10.989 -12.605 -12.106 0
M  V30 3374 O -7.541 13.51 16.172 0
M  V30 3375 H -8.177 13.47 15.458 0
M  V30 3376 H -6.984 14.257 15.956 0
M  V30 3377 O 3.56 12.395 12.494 0
M  V30 3378 H 3.279 12.304 13.405 0
M  V30 3379 H 4.212 11.705 12.373 0
M  V30 3380 O 3.603 -6.618 6.218 0
M  V30 3381 H 3.032 -6.995 6.888 0
M  V30 3382 H 4.458 -7.017 6.379 0
M  V30 3383 O 10.095 16.445 -8.059 0
M  V30 3384 H 10.197 16.121 -7.164 0
M  V30 3385 H 10.679 17.202 -8.108 0
M  V30 3386 O -16.669 -2.254 6.341 0
M  V30 3387 H -16.183 -1.857 5.619 0
M  V30 3388 H -16.126 -2.991 6.62 0
M  V30 3389 O -7.053 15.186 4.063 0
M  V30 3390 H -6.799 14.263 4.074 0
M  V30 3391 H -6.76 15.505 3.21 0
M  V30 3392 O -7.093 3.799 11.845 0
M  V30 3393 H -7.714 3.118 11.584 0
M  V30 3394 H -7.566 4.319 12.494 0
M  V30 3395 O -3.19 -14.81 4.56 0
M  V30 3396 H -4.113 -14.79 4.813 0
M  V30 3397 H -2.937 -13.888 4.505 0
M  V30 3398 O 14.34 -10.348 -15.28 0
M  V30 3399 H 14.035 -10.505 -14.386 0
M  V30 3400 H 14.402 -11.22 -15.669 0
M  V30 3401 O -0.542 16.653 10.852 0
M  V30 3402 H -1.426 16.36 10.633 0
M  V30 3403 H 0.029 16.145 10.275 0
M  V30 3404 O 13.28 14.015 7.857 0
M  V30 3405 H 12.41 14.247 7.533 0
M  V30 3406 H 13.524 13.237 7.355 0
M  V30 3407 O 13.55 2.287 8.728 0
M  V30 3408 H 14.435 2.02 8.979 0
M  V30 3409 H 13.463 3.178 9.067 0
M  V30 3410 O -0.448 -15.622 6.784 0
M  V30 3411 H -0.306 -16.521 6.486 0
M  V30 3412 H 0.346 -15.155 6.526 0
M  V30 3413 O 2.158 -9.257 5.287 0
M  V30 3414 H 3.052 -9.257 4.946 0
M  V30 3415 H 2.011 -10.157 5.578 0
M  V30 3416 O -0.879 4.895 -11.893 0
M  V30 3417 H -1.195 5.358 -11.117 0
M  V30 3418 H -0.601 5.589 -12.491 0
M  V30 3419 O 7.454 1.273 10.018 0
M  V30 3420 H 6.709 1.149 9.43 0
M  V30 3421 H 8.16 0.763 9.621 0
M  V30 3422 O -16.797 9.653 1.47 0
M  V30 3423 H -16.14 10.149 1.958 0
M  V30 3424 H -16.642 8.741 1.717 0
M  V30 3425 O 6.386 -7.018 6.897 0
M  V30 3426 H 7.128 -7.317 6.371 0
M  V30 3427 H 6.431 -6.063 6.852 0
M  V30 3428 O -0.69 3.744 6.598 0
M  V30 3429 H -1.585 4.085 6.621 0
M  V30 3430 H -0.796 2.8 6.48 0
M  V30 3431 O -14.921 -5.716 11.102 0
M  V30 3432 H -15.633 -5.077 11.151 0
M  V30 3433 H -14.172 -5.216 10.777 0
M  V30 3434 O -5.705 -7.238 5.181 0
M  V30 3435 H -4.951 -7.384 4.611 0
M  V30 3436 H -5.437 -7.593 6.029 0
M  V30 3437 O -10.98 9.099 2.621 0
M  V30 3438 H -10.058 8.918 2.805 0
M  V30 3439 H -11.154 8.645 1.797 0
M  V30 3440 O 10.167 -8.914 6.167 0
M  V30 3441 H 10.365 -9.432 5.387 0
M  V30 3442 H 9.309 -8.529 5.988 0
M  V30 3443 O -16.296 -6.694 8.367 0
M  V30 3444 H -16.995 -6.049 8.483 0
M  V30 3445 H -15.796 -6.655 9.183 0
M  V30 3446 O -14.944 10.402 8.767 0
M  V30 3447 H -14.595 11.191 8.353 0
M  V30 3448 H -15.889 10.546 8.798 0
M  V30 3449 O -7.207 -11.711 7.526 0
M  V30 3450 H -6.753 -11.204 6.853 0
M  V30 3451 H -7.952 -12.102 7.069 0
M  V30 3452 O -9.696 8.739 -1.47 0
M  V30 3453 H -9.722 7.928 -0.962 0
M  V30 3454 H -9.423 9.407 -0.842 0
M  V30 3455 O -14.193 -7.147 -0.645 0
M  V30 3456 H -14.76 -7.413 -1.369 0
M  V30 3457 H -13.462 -6.695 -1.067 0
M  V30 3458 O -2.789 2.519 16.216 0
M  V30 3459 H -3.415 1.866 15.904 0
M  V30 3460 H -3.3 3.324 16.295 0
M  V30 3461 O 10.394 -3.182 -10.44 0
M  V30 3462 H 10.262 -2.247 -10.594 0
M  V30 3463 H 11.335 -3.315 -10.559 0
M  V30 3464 O 7.666 -3.591 -1.239 0
M  V30 3465 H 7.766 -3.506 -2.187 0
M  V30 3466 H 6.742 -3.808 -1.113 0
M  V30 3467 O 1.192 14.776 13.623 0
M  V30 3468 H 0.913 14.003 14.113 0
M  V30 3469 H 1.024 14.552 12.707 0
M  V30 3470 O 0.046 6.636 -13.773 0
M  V30 3471 H 0.136 6.189 -14.614 0
M  V30 3472 H 0.905 7.026 -13.615 0
M  V30 3473 O -13.967 9.798 -12.761 0
M  V30 3474 H -13.019 9.666 -12.783 0
M  V30 3475 H -14.095 10.673 -13.129 0
M  V30 3476 O -8.008 -2.111 -8.92 0
M  V30 3477 H -7.221 -1.764 -8.5 0
M  V30 3478 H -8.294 -1.412 -9.508 0
M  V30 3479 O 10.97 -7.737 1.551 0
M  V30 3480 H 10.61 -7.095 2.162 0
M  V30 3481 H 10.244 -7.942 0.962 0
M  V30 3482 O 11.652 -15.575 -8.445 0
M  V30 3483 H 12.532 -15.419 -8.787 0
M  V30 3484 H 11.694 -15.288 -7.533 0
M  V30 3485 O -6.12 8.034 -8.101 0
M  V30 3486 H -5.493 8.673 -8.439 0
M  V30 3487 H -6.903 8.548 -7.903 0
M  V30 3488 O 14.398 13.455 -12.305 0
M  V30 3489 H 15.085 12.915 -12.695 0
M  V30 3490 H 14.575 13.426 -11.364 0
M  V30 3491 O 0.777 -12.062 1.331 0
M  V30 3492 H 0.983 -12.566 2.118 0
M  V30 3493 H 1.627 -11.892 0.925 0
M  V30 3494 O -15.211 3.605 -11.125 0
M  V30 3495 H -15.779 4.344 -10.907 0
M  V30 3496 H -15.805 2.937 -11.467 0
M  V30 3497 O 2.718 -16.461 -10.959 0
M  V30 3498 H 2.007 -16.271 -11.572 0
M  V30 3499 H 3.477 -16.007 -11.326 0
M  V30 3500 O 14.71 7.984 8.97 0
M  V30 3501 H 14.794 7.331 8.275 0
M  V30 3502 H 15.368 7.731 9.617 0
M  V30 3503 O 14.87 11.93 6.189 0
M  V30 3504 H 15.757 11.679 5.932 0
M  V30 3505 H 14.574 12.515 5.492 0
M  V30 3506 O 13.903 -13.502 -16.494 0
M  V30 3507 H 13.578 -14.098 -15.82 0
M  V30 3508 H 13.131 -13.29 -17.019 0
M  V30 3509 O 15.696 -4.909 9.635 0
M  V30 3510 H 14.88 -5.023 10.122 0
M  V30 3511 H 16.179 -4.245 10.128 0
M  V30 3512 O -1.249 13.408 -9.959 0
M  V30 3513 H -2.055 13.898 -10.12 0
M  V30 3514 H -0.732 13.529 -10.756 0
M  V30 3515 O 13.34 3.642 -0.238 0
M  V30 3516 H 13.771 4.057 -0.985 0
M  V30 3517 H 13.137 2.757 -0.539 0
M  V30 3518 O 2.783 -2.343 -1.952 0
M  V30 3519 H 3.654 -2.647 -2.208 0
M  V30 3520 H 2.355 -3.12 -1.591 0
M  V30 3521 O 5.512 -6.899 -13.719 0
M  V30 3522 H 6.439 -6.662 -13.674 0
M  V30 3523 H 5.132 -6.531 -12.921 0
M  V30 3524 O -3.546 12.554 -12.56 0
M  V30 3525 H -4.123 12.714 -13.307 0
M  V30 3526 H -2.665 12.541 -12.935 0
M  V30 3527 O 15.583 15.301 7.72 0
M  V30 3528 H 14.834 14.752 7.949 0
M  V30 3529 H 15.617 15.275 6.764 0
M  V30 3530 O 2.647 -12.658 -5.455 0
M  V30 3531 H 3.375 -12.835 -4.859 0
M  V30 3532 H 2.431 -13.511 -5.83 0
M  V30 3533 O -0.441 -14.531 -4.745 0
M  V30 3534 H -0.807 -15.413 -4.801 0
M  V30 3535 H 0.367 -14.638 -4.244 0
M  V30 3536 O 5.211 -16.422 -6.492 0
M  V30 3537 H 6.134 -16.17 -6.518 0
M  V30 3538 H 5.17 -17.234 -6.997 0
M  V30 3539 O -0.033 -7.417 -15.715 0
M  V30 3540 H 0.857 -7.685 -15.486 0
M  V30 3541 H -0.131 -6.549 -15.323 0
M  V30 3542 O 1.702 0.2 9.773 0
M  V30 3543 H 1.343 -0.687 9.784 0
M  V30 3544 H 1.253 0.65 10.489 0
M  V30 3545 O 5.932 9.237 -5.404 0
M  V30 3546 H 6.189 8.339 -5.192 0
M  V30 3547 H 5.206 9.425 -4.809 0
M  V30 3548 O 14.627 -1.692 6.36 0
M  V30 3549 H 15.506 -2.043 6.215 0
M  V30 3550 H 14.129 -1.968 5.591 0
M  V30 3551 O -13.896 8.992 11.079 0
M  V30 3552 H -13.77 9.888 11.392 0
M  V30 3553 H -13.949 9.076 10.127 0
M  V30 3554 O -16.352 -15.328 -16.204 0
M  V30 3555 H -16.854 -15.356 -15.39 0
M  V30 3556 H -15.442 -15.438 -15.929 0
M  V30 3557 O -15.47 3.449 -14.542 0
M  V30 3558 H -14.616 3.522 -14.115 0
M  V30 3559 H -15.576 2.512 -14.708 0
M  V30 3560 O 0.937 -6.844 14.702 0
M  V30 3561 H 1.541 -7.575 14.573 0
M  V30 3562 H 0.406 -7.101 15.456 0
M  V30 3563 O 16.648 9.135 13.059 0
M  V30 3564 H 16.459 8.448 12.419 0
M  V30 3565 H 17.121 8.686 13.76 0
M  V30 3566 O -11.464 2.477 -15.743 0
M  V30 3567 H -12.007 3.084 -15.241 0
M  V30 3568 H -11.985 2.277 -16.521 0
M  V30 3569 O -2.963 3.682 1.359 0
M  V30 3570 H -3.027 3.935 2.28 0
M  V30 3571 H -2.539 4.428 0.934 0
M  V30 3572 O 7.156 1.784 -12.038 0
M  V30 3573 H 6.465 2.419 -12.224 0
M  V30 3574 H 7.77 2.255 -11.475 0
M  V30 3575 O -9.349 -10.303 -7.142 0
M  V30 3576 H -10.134 -10.224 -6.599 0
M  V30 3577 H -8.841 -11.001 -6.728 0
M  V30 3578 O 6.531 -12.329 -15.841 0
M  V30 3579 H 6.956 -13.185 -15.776 0
M  V30 3580 H 6.891 -11.827 -15.109 0
M  V30 3581 O 14.124 -16.775 0.684 0
M  V30 3582 H 14 -16.853 1.63 0
M  V30 3583 H 14.681 -17.518 0.453 0
M  V30 3584 O 0.618 -10.9 -4.697 0
M  V30 3585 H -0.069 -11.407 -5.129 0
M  V30 3586 H 1.426 -11.375 -4.892 0
M  V30 3587 O 15.496 2.55 -6.9 0
M  V30 3588 H 15.714 3.196 -7.571 0
M  V30 3589 H 14.925 1.924 -7.346 0
M  V30 3590 O -7.862 5.804 -6.879 0
M  V30 3591 H -7.311 6.57 -7.038 0
M  V30 3592 H -8.642 6.154 -6.449 0
M  V30 3593 O -13.623 4.43 12.184 0
M  V30 3594 H -12.923 4.475 11.533 0
M  V30 3595 H -13.769 5.34 12.443 0
M  V30 3596 O -1.793 1.738 9.69 0
M  V30 3597 H -1.9 1.404 8.799 0
M  V30 3598 H -2.629 1.555 10.117 0
M  V30 3599 O -14.376 -17.017 14.469 0
M  V30 3600 H -14.406 -16.364 15.168 0
M  V30 3601 H -14.661 -17.829 14.888 0
M  V30 3602 O 14.773 -8.984 11.138 0
M  V30 3603 H 14.937 -8.043 11.201 0
M  V30 3604 H 13.861 -9.05 10.856 0
M  V30 3605 O -9.601 13.157 -12.764 0
M  V30 3606 H -9.102 13.477 -12.012 0
M  V30 3607 H -9.07 12.445 -13.12 0
M  V30 3608 O 5.436 -16.522 12.641 0
M  V30 3609 H 5.68 -16.957 11.824 0
M  V30 3610 H 5.002 -17.203 13.155 0
M  V30 3611 O 14.175 8.769 4.062 0
M  V30 3612 H 15.119 8.742 3.909 0
M  V30 3613 H 14.066 8.445 4.956 0
M  V30 3614 O 8.795 11.918 -9.568 0
M  V30 3615 H 8.974 11.099 -9.105 0
M  V30 3616 H 7.936 11.785 -9.968 0
M  V30 3617 O 14.507 16.291 -13.507 0
M  V30 3618 H 14.347 16.233 -14.449 0
M  V30 3619 H 14.417 15.391 -13.193 0
M  V30 3620 O 6.665 0.637 -0.169 0
M  V30 3621 H 6.318 0.582 0.722 0
M  V30 3622 H 5.977 0.262 -0.718 0
M  V30 3623 O 14.555 10.093 1.365 0
M  V30 3624 H 14.093 9.543 1.999 0
M  V30 3625 H 15.472 9.827 1.441 0
M  V30 3626 O 7.592 9.902 -15.731 0
M  V30 3627 H 7.183 9.751 -14.879 0
M  V30 3628 H 8.252 10.575 -15.565 0
M  V30 3629 O 2.717 -10.674 -7.39 0
M  V30 3630 H 2.748 -11.438 -6.814 0
M  V30 3631 H 1.947 -10.819 -7.94 0
M  V30 3632 O -13.2 -15.142 12.904 0
M  V30 3633 H -13.382 -15.205 11.967 0
M  V30 3634 H -13.706 -15.854 13.296 0
M  V30 3635 O -1.767 -17.069 4.931 0
M  V30 3636 H -2.425 -17.616 4.502 0
M  V30 3637 H -2.113 -16.179 4.863 0
M  V30 3638 O -9.365 -10.53 -12.59 0
M  V30 3639 H -9.302 -10.245 -11.678 0
M  V30 3640 H -10.302 -10.656 -12.738 0
M  V30 3641 O 9.927 -13.812 -0.649 0
M  V30 3642 H 10.741 -14.077 -1.075 0
M  V30 3643 H 10.158 -13.722 0.276 0
M  V30 3644 O -15.085 5.25 -7.807 0
M  V30 3645 H -14.956 4.373 -8.167 0
M  V30 3646 H -14.221 5.509 -7.487 0
M  V30 3647 O -16.682 6.961 0.835 0
M  V30 3648 H -16.054 6.922 0.114 0
M  V30 3649 H -17.095 6.098 0.841 0
M  V30 3650 O 14.603 -6.027 -11.84 0
M  V30 3651 H 14.357 -6.326 -12.715 0
M  V30 3652 H 14.899 -6.819 -11.39 0
M  V30 3653 O 5.54 -6.831 -4.189 0
M  V30 3654 H 5.38 -6.302 -4.971 0
M  V30 3655 H 6.296 -7.372 -4.416 0
M  V30 3656 O 2.889 2.778 12.854 0
M  V30 3657 H 3.542 2.523 12.201 0
M  V30 3658 H 2.049 2.566 12.447 0
M  V30 3659 O -0.711 -0.588 -8.279 0
M  V30 3660 H -0.147 -1.358 -8.209 0
M  V30 3661 H -0.931 -0.368 -7.374 0
M  V30 3662 O -13.257 -10.703 -8.095 0
M  V30 3663 H -13.887 -10.955 -7.42 0
M  V30 3664 H -12.55 -10.272 -7.615 0
M  V30 3665 O -9.013 -3.546 15.945 0
M  V30 3666 H -9.821 -3.967 16.24 0
M  V30 3667 H -9.275 -3.036 15.178 0
M  V30 3668 O -16.03 -9.033 -7.428 0
M  V30 3669 H -15.227 -8.938 -6.917 0
M  V30 3670 H -15.748 -8.947 -8.338 0
M  V30 3671 O -6.271 5.964 -11.54 0
M  V30 3672 H -6.069 5.706 -10.64 0
M  V30 3673 H -5.547 5.613 -12.059 0
M  V30 3674 O 8.79 -4.476 1.291 0
M  V30 3675 H 8.523 -4.216 0.41 0
M  V30 3676 H 9.227 -3.703 1.648 0
M  V30 3677 O 15.685 6.866 -6.305 0
M  V30 3678 H 16.097 7.705 -6.095 0
M  V30 3679 H 15.222 7.026 -7.127 0
M  V30 3680 O -5.625 -4.396 -13.866 0
M  V30 3681 H -4.829 -4.85 -14.144 0
M  V30 3682 H -6.167 -4.358 -14.654 0
M  V30 3683 O 11.065 -9.916 3.371 0
M  V30 3684 H 11.02 -9.305 2.635 0
M  V30 3685 H 10.244 -10.406 3.326 0
M  V30 3686 O 3.266 14.261 -11.34 0
M  V30 3687 H 3.433 13.605 -10.662 0
M  V30 3688 H 2.98 15.036 -10.857 0
M  V30 3689 O 15.54 7.814 -12.047 0
M  V30 3690 H 14.96 7.229 -12.534 0
M  V30 3691 H 15.993 7.242 -11.427 0
M  V30 3692 O -3.549 14.978 -9.871 0
M  V30 3693 H -4.129 15.636 -10.255 0
M  V30 3694 H -4.015 14.673 -9.092 0
M  V30 3695 O -3.165 -8.301 -1.448 0
M  V30 3696 H -2.886 -9.02 -2.015 0
M  V30 3697 H -2.389 -8.09 -0.93 0
M  V30 3698 O -8.922 -13.836 -1.702 0
M  V30 3699 H -8.672 -13.641 -0.799 0
M  V30 3700 H -8.301 -13.34 -2.236 0
M  V30 3701 O 5.709 11.179 -0.661 0
M  V30 3702 H 5.898 11.336 -1.586 0
M  V30 3703 H 4.809 11.486 -0.545 0
M  V30 3704 O 3.898 -13.109 16.502 0
M  V30 3705 H 4.804 -13.03 16.803 0
M  V30 3706 H 3.964 -13.544 15.652 0
M  V30 3707 O 0.079 14.472 2.726 0
M  V30 3708 H 0.871 14.702 2.241 0
M  V30 3709 H 0.188 13.545 2.938 0
M  V30 3710 O 7.06 -9.026 -4.925 0
M  V30 3711 H 6.367 -9.627 -5.199 0
M  V30 3712 H 7.785 -9.207 -5.523 0
M  V30 3713 O 2.132 6.056 -3.215 0
M  V30 3714 H 1.299 5.592 -3.129 0
M  V30 3715 H 2.163 6.637 -2.455 0
M  V30 3716 O 4.181 -7.963 14.695 0
M  V30 3717 H 4.648 -7.248 14.263 0
M  V30 3718 H 4.864 -8.455 15.151 0
M  V30 3719 O 4.1 15.397 13.347 0
M  V30 3720 H 3.71 14.523 13.347 0
M  V30 3721 H 3.351 15.993 13.356 0
M  V30 3722 O -3.347 -6.298 -14.104 0
M  V30 3723 H -2.416 -6.236 -13.888 0
M  V30 3724 H -3.386 -6.941 -14.811 0
M  V30 3725 O 14.404 -4.058 -0.681 0
M  V30 3726 H 15.197 -4.486 -0.358 0
M  V30 3727 H 13.697 -4.443 -0.163 0
M  V30 3728 O -4.941 5.756 -9.294 0
M  V30 3729 H -4.432 5.311 -8.617 0
M  V30 3730 H -5.417 6.442 -8.825 0
M  V30 3731 O 16.269 10.368 8.558 0
M  V30 3732 H 16.653 10.01 7.758 0
M  V30 3733 H 15.573 9.751 8.787 0
M  V30 3734 O 2.139 -9.032 -12.04 0
M  V30 3735 H 1.37 -9.497 -11.71 0
M  V30 3736 H 2.079 -8.161 -11.646 0
M  V30 3737 O 12.658 -12.465 12.302 0
M  V30 3738 H 11.952 -11.837 12.147 0
M  V30 3739 H 12.534 -12.745 13.209 0
M  V30 3740 O 3.359 11.538 -2.078 0
M  V30 3741 H 3.694 12.405 -2.31 0
M  V30 3742 H 2.409 11.651 -2.039 0
M  V30 END ATOM
M  V30 BEGIN BOND
M  V30 1 1 3 1
M  V30 2 1 1 4
M  V30 3 1 1 5
M  V30 4 1 1 2
M  V30 5 1 7 6
M  V30 6 1 72 6
M  V30 7 1 18 6
M  V30 8 1 6 26
M  V30 9 1 19 7
M  V30 10 1 7 8
M  V30 11 1 7 73
M  V30 12 1 74 8
M  V30 13 1 9 8
M  V30 14 1 8 20
M  V30 15 1 75 9
M  V30 16 1 9 10
M  V30 17 1 9 22
M  V30 18 1 18 10
M  V30 19 1 11 10
M  V30 20 1 10 76
M  V30 21 1 21 11
M  V30 22 1 11 78
M  V30 23 1 11 77
M  V30 24 1 79 12
M  V30 25 1 23 12
M  V30 26 1 12 22
M  V30 27 1 12 13
M  V30 28 1 14 13
M  V30 29 1 13 24
M  V30 30 1 13 80
M  V30 31 1 81 14
M  V30 32 1 15 14
M  V30 33 1 14 25
M  V30 34 1 16 15
M  V30 35 1 82 15
M  V30 36 1 15 55
M  V30 37 1 17 16
M  V30 38 1 83 16
M  V30 39 1 16 23
M  V30 40 1 85 17
M  V30 41 1 84 17
M  V30 42 1 27 17
M  V30 43 1 86 19
M  V30 44 1 20 87
M  V30 45 1 88 21
M  V30 46 1 24 89
M  V30 47 1 25 90
M  V30 48 1 26 28
M  V30 49 1 91 27
M  V30 50 1 67 28
M  V30 51 1 92 28
M  V30 52 1 28 29
M  V30 53 1 29 30
M  V30 54 1 29 71
M  V30 55 1 29 93
M  V30 56 1 94 30
M  V30 57 1 31 30
M  V30 58 1 30 70
M  V30 59 1 66 31
M  V30 60 1 31 32
M  V30 61 1 31 95
M  V30 62 1 32 33
M  V30 63 1 96 33
M  V30 64 1 38 33
M  V30 65 1 33 34
M  V30 66 1 34 97
M  V30 67 1 34 65
M  V30 68 1 34 35
M  V30 69 1 36 35
M  V30 70 1 64 35
M  V30 71 1 35 98
M  V30 72 1 37 36
M  V30 73 1 36 99
M  V30 74 1 36 41
M  V30 75 1 38 37
M  V30 76 1 39 38
M  V30 77 1 38 100
M  V30 78 1 40 39
M  V30 79 1 101 39
M  V30 80 1 102 39
M  V30 81 1 40 103
M  V30 82 1 42 41
M  V30 83 1 59 42
M  V30 84 1 42 104
M  V30 85 1 42 43
M  V30 86 1 44 43
M  V30 87 1 43 105
M  V30 88 1 43 63
M  V30 89 1 45 44
M  V30 90 1 106 44
M  V30 91 1 44 62
M  V30 92 1 46 45
M  V30 93 1 58 45
M  V30 94 1 45 107
M  V30 95 1 47 46
M  V30 96 1 52 47
M  V30 97 1 108 47
M  V30 98 1 47 48
M  V30 99 1 49 48
M  V30 100 1 48 57
M  V30 101 1 48 109
M  V30 102 1 50 49
M  V30 103 1 56 49
M  V30 104 1 49 110
M  V30 105 1 111 50
M  V30 106 1 51 50
M  V30 107 1 50 55
M  V30 108 1 51 52
M  V30 109 1 53 52
M  V30 110 1 52 112
M  V30 111 1 114 53
M  V30 112 1 53 54
M  V30 113 1 53 113
M  V30 114 1 54 115
M  V30 115 1 56 116
M  V30 116 1 57 117
M  V30 117 1 58 59
M  V30 118 1 118 59
M  V30 119 1 59 60
M  V30 120 1 61 60
M  V30 121 1 60 120
M  V30 122 1 60 119
M  V30 123 1 61 121
M  V30 124 1 62 122
M  V30 125 1 63 123
M  V30 126 1 124 64
M  V30 127 1 125 65
M  V30 128 1 67 66
M  V30 129 1 126 67
M  V30 130 1 67 68
M  V30 131 1 128 68
M  V30 132 1 69 68
M  V30 133 1 68 127
M  V30 134 1 129 69
M  V30 135 1 70 130
M  V30 136 1 131 71
M  V30 137 1 136 134
M  V30 138 1 134 135
M  V30 139 1 138 137
M  V30 140 1 137 139
M  V30 141 1 141 140
M  V30 142 1 140 142
M  V30 143 1 145 143
M  V30 144 1 143 144
M  V30 145 1 148 146
M  V30 146 1 146 147
M  V30 147 1 151 149
M  V30 148 1 149 150
M  V30 149 1 154 152
M  V30 150 1 152 153
M  V30 151 1 156 155
M  V30 152 1 155 157
M  V30 153 1 159 158
M  V30 154 1 158 160
M  V30 155 1 163 161
M  V30 156 1 161 162
M  V30 157 1 166 164
M  V30 158 1 164 165
M  V30 159 1 169 167
M  V30 160 1 168 167
M  V30 161 1 172 170
M  V30 162 1 170 171
M  V30 163 1 175 173
M  V30 164 1 174 173
M  V30 165 1 176 177
M  V30 166 1 176 178
M  V30 167 1 179 180
M  V30 168 1 179 181
M  V30 169 1 184 182
M  V30 170 1 182 183
M  V30 171 1 187 185
M  V30 172 1 185 186
M  V30 173 1 189 188
M  V30 174 1 188 190
M  V30 175 1 193 191
M  V30 176 1 191 192
M  V30 177 1 195 194
M  V30 178 1 194 196
M  V30 179 1 199 197
M  V30 180 1 197 198
M  V30 181 1 201 200
M  V30 182 1 200 202
M  V30 183 1 205 203
M  V30 184 1 204 203
M  V30 185 1 207 206
M  V30 186 1 208 206
M  V30 187 1 209 210
M  V30 188 1 209 211
M  V30 189 1 214 212
M  V30 190 1 213 212
M  V30 191 1 215 217
M  V30 192 1 215 216
M  V30 193 1 218 220
M  V30 194 1 218 219
M  V30 195 1 222 221
M  V30 196 1 221 223
M  V30 197 1 224 225
M  V30 198 1 224 226
M  V30 199 1 227 228
M  V30 200 1 227 229
M  V30 201 1 231 230
M  V30 202 1 230 232
M  V30 203 1 235 233
M  V30 204 1 234 233
M  V30 205 1 237 236
M  V30 206 1 236 238
M  V30 207 1 240 239
M  V30 208 1 239 241
M  V30 209 1 242 243
M  V30 210 1 242 244
M  V30 211 1 245 247
M  V30 212 1 245 246
M  V30 213 1 248 250
M  V30 214 1 248 249
M  V30 215 1 253 251
M  V30 216 1 252 251
M  V30 217 1 256 254
M  V30 218 1 255 254
M  V30 219 1 257 259
M  V30 220 1 257 258
M  V30 221 1 260 261
M  V30 222 1 260 262
M  V30 223 1 265 263
M  V30 224 1 263 264
M  V30 225 1 267 266
M  V30 226 1 266 268
M  V30 227 1 270 269
M  V30 228 1 269 271
M  V30 229 1 272 274
M  V30 230 1 272 273
M  V30 231 1 277 275
M  V30 232 1 275 276
M  V30 233 1 278 279
M  V30 234 1 278 280
M  V30 235 1 283 281
M  V30 236 1 281 282
M  V30 237 1 286 284
M  V30 238 1 284 285
M  V30 239 1 287 289
M  V30 240 1 287 288
M  V30 241 1 292 290
M  V30 242 1 290 291
M  V30 243 1 293 294
M  V30 244 1 293 295
M  V30 245 1 297 296
M  V30 246 1 296 298
M  V30 247 1 301 299
M  V30 248 1 299 300
M  V30 249 1 304 302
M  V30 250 1 302 303
M  V30 251 1 306 305
M  V30 252 1 307 305
M  V30 253 1 309 308
M  V30 254 1 310 308
M  V30 255 1 312 311
M  V30 256 1 311 313
M  V30 257 1 316 314
M  V30 258 1 314 315
M  V30 259 1 318 317
M  V30 260 1 319 317
M  V30 261 1 321 320
M  V30 262 1 322 320
M  V30 263 1 323 324
M  V30 264 1 323 325
M  V30 265 1 326 328
M  V30 266 1 326 327
M  V30 267 1 330 329
M  V30 268 1 329 331
M  V30 269 1 332 334
M  V30 270 1 332 333
M  V30 271 1 336 335
M  V30 272 1 337 335
M  V30 273 1 338 340
M  V30 274 1 338 339
M  V30 275 1 342 341
M  V30 276 1 341 343
M  V30 277 1 345 344
M  V30 278 1 346 344
M  V30 279 1 347 348
M  V30 280 1 347 349
M  V30 281 1 352 350
M  V30 282 1 350 351
M  V30 283 1 354 353
M  V30 284 1 353 355
M  V30 285 1 356 358
M  V30 286 1 356 357
M  V30 287 1 360 359
M  V30 288 1 359 361
M  V30 289 1 363 362
M  V30 290 1 362 364
M  V30 291 1 366 365
M  V30 292 1 365 367
M  V30 293 1 370 368
M  V30 294 1 368 369
M  V30 295 1 372 371
M  V30 296 1 371 373
M  V30 297 1 376 374
M  V30 298 1 375 374
M  V30 299 1 379 377
M  V30 300 1 377 378
M  V30 301 1 381 380
M  V30 302 1 380 382
M  V30 303 1 384 383
M  V30 304 1 383 385
M  V30 305 1 388 386
M  V30 306 1 387 386
M  V30 307 1 390 389
M  V30 308 1 391 389
M  V30 309 1 393 392
M  V30 310 1 392 394
M  V30 311 1 395 397
M  V30 312 1 395 396
M  V30 313 1 399 398
M  V30 314 1 398 400
M  V30 315 1 402 401
M  V30 316 1 401 403
M  V30 317 1 406 404
M  V30 318 1 404 405
M  V30 319 1 408 407
M  V30 320 1 407 409
M  V30 321 1 412 410
M  V30 322 1 410 411
M  V30 323 1 415 413
M  V30 324 1 414 413
M  V30 325 1 416 418
M  V30 326 1 416 417
M  V30 327 1 419 420
M  V30 328 1 419 421
M  V30 329 1 423 422
M  V30 330 1 422 424
M  V30 331 1 426 425
M  V30 332 1 425 427
M  V30 333 1 429 428
M  V30 334 1 428 430
M  V30 335 1 431 433
M  V30 336 1 431 432
M  V30 337 1 436 434
M  V30 338 1 434 435
M  V30 339 1 437 439
M  V30 340 1 437 438
M  V30 341 1 440 442
M  V30 342 1 440 441
M  V30 343 1 445 443
M  V30 344 1 443 444
M  V30 345 1 447 446
M  V30 346 1 448 446
M  V30 347 1 451 449
M  V30 348 1 449 450
M  V30 349 1 454 452
M  V30 350 1 452 453
M  V30 351 1 456 455
M  V30 352 1 457 455
M  V30 353 1 459 458
M  V30 354 1 458 460
M  V30 355 1 463 461
M  V30 356 1 461 462
M  V30 357 1 465 464
M  V30 358 1 464 466
M  V30 359 1 469 467
M  V30 360 1 467 468
M  V30 361 1 472 470
M  V30 362 1 471 470
M  V30 363 1 473 474
M  V30 364 1 473 475
M  V30 365 1 477 476
M  V30 366 1 476 478
M  V30 367 1 479 481
M  V30 368 1 479 480
M  V30 369 1 484 482
M  V30 370 1 482 483
M  V30 371 1 487 485
M  V30 372 1 485 486
M  V30 373 1 489 488
M  V30 374 1 488 490
M  V30 375 1 493 491
M  V30 376 1 491 492
M  V30 377 1 496 494
M  V30 378 1 494 495
M  V30 379 1 498 497
M  V30 380 1 497 499
M  V30 381 1 500 502
M  V30 382 1 500 501
M  V30 383 1 505 503
M  V30 384 1 503 504
M  V30 385 1 507 506
M  V30 386 1 506 508
M  V30 387 1 511 509
M  V30 388 1 509 510
M  V30 389 1 513 512
M  V30 390 1 512 514
M  V30 391 1 516 515
M  V30 392 1 515 517
M  V30 393 1 520 518
M  V30 394 1 518 519
M  V30 395 1 523 521
M  V30 396 1 521 522
M  V30 397 1 525 524
M  V30 398 1 524 526
M  V30 399 1 528 527
M  V30 400 1 529 527
M  V30 401 1 531 530
M  V30 402 1 530 532
M  V30 403 1 534 533
M  V30 404 1 533 535
M  V30 405 1 536 538
M  V30 406 1 536 537
M  V30 407 1 539 541
M  V30 408 1 539 540
M  V30 409 1 542 544
M  V30 410 1 542 543
M  V30 411 1 547 545
M  V30 412 1 546 545
M  V30 413 1 548 550
M  V30 414 1 548 549
M  V30 415 1 552 551
M  V30 416 1 551 553
M  V30 417 1 555 554
M  V30 418 1 554 556
M  V30 419 1 559 557
M  V30 420 1 557 558
M  V30 421 1 561 560
M  V30 422 1 560 562
M  V30 423 1 563 565
M  V30 424 1 563 564
M  V30 425 1 568 566
M  V30 426 1 567 566
M  V30 427 1 571 569
M  V30 428 1 569 570
M  V30 429 1 574 572
M  V30 430 1 573 572
M  V30 431 1 577 575
M  V30 432 1 575 576
M  V30 433 1 579 578
M  V30 434 1 578 580
M  V30 435 1 582 581
M  V30 436 1 583 581
M  V30 437 1 586 584
M  V30 438 1 584 585
M  V30 439 1 589 587
M  V30 440 1 587 588
M  V30 441 1 592 590
M  V30 442 1 590 591
M  V30 443 1 595 593
M  V30 444 1 593 594
M  V30 445 1 597 596
M  V30 446 1 596 598
M  V30 447 1 601 599
M  V30 448 1 599 600
M  V30 449 1 603 602
M  V30 450 1 602 604
M  V30 451 1 605 607
M  V30 452 1 605 606
M  V30 453 1 610 608
M  V30 454 1 608 609
M  V30 455 1 612 611
M  V30 456 1 611 613
M  V30 457 1 615 614
M  V30 458 1 614 616
M  V30 459 1 619 617
M  V30 460 1 617 618
M  V30 461 1 621 620
M  V30 462 1 620 622
M  V30 463 1 625 623
M  V30 464 1 623 624
M  V30 465 1 628 626
M  V30 466 1 626 627
M  V30 467 1 631 629
M  V30 468 1 630 629
M  V30 469 1 633 632
M  V30 470 1 632 634
M  V30 471 1 637 635
M  V30 472 1 635 636
M  V30 473 1 640 638
M  V30 474 1 639 638
M  V30 475 1 642 641
M  V30 476 1 641 643
M  V30 477 1 646 644
M  V30 478 1 645 644
M  V30 479 1 649 647
M  V30 480 1 647 648
M  V30 481 1 651 650
M  V30 482 1 650 652
M  V30 483 1 654 653
M  V30 484 1 655 653
M  V30 485 1 658 656
M  V30 486 1 656 657
M  V30 487 1 661 659
M  V30 488 1 659 660
M  V30 489 1 663 662
M  V30 490 1 662 664
M  V30 491 1 665 666
M  V30 492 1 665 667
M  V30 493 1 669 668
M  V30 494 1 670 668
M  V30 495 1 672 671
M  V30 496 1 673 671
M  V30 497 1 675 674
M  V30 498 1 674 676
M  V30 499 1 679 677
M  V30 500 1 678 677
M  V30 501 1 680 681
M  V30 502 1 680 682
M  V30 503 1 685 683
M  V30 504 1 683 684
M  V30 505 1 688 686
M  V30 506 1 686 687
M  V30 507 1 691 689
M  V30 508 1 690 689
M  V30 509 1 694 692
M  V30 510 1 693 692
M  V30 511 1 696 695
M  V30 512 1 695 697
M  V30 513 1 699 698
M  V30 514 1 698 700
M  V30 515 1 703 701
M  V30 516 1 701 702
M  V30 517 1 705 704
M  V30 518 1 704 706
M  V30 519 1 709 707
M  V30 520 1 707 708
M  V30 521 1 712 710
M  V30 522 1 711 710
M  V30 523 1 714 713
M  V30 524 1 713 715
M  V30 525 1 717 716
M  V30 526 1 716 718
M  V30 527 1 719 720
M  V30 528 1 719 721
M  V30 529 1 724 722
M  V30 530 1 722 723
M  V30 531 1 727 725
M  V30 532 1 725 726
M  V30 533 1 729 728
M  V30 534 1 728 730
M  V30 535 1 731 732
M  V30 536 1 731 733
M  V30 537 1 735 734
M  V30 538 1 734 736
M  V30 539 1 738 737
M  V30 540 1 737 739
M  V30 541 1 740 741
M  V30 542 1 740 742
M  V30 543 1 743 744
M  V30 544 1 743 745
M  V30 545 1 748 746
M  V30 546 1 747 746
M  V30 547 1 749 751
M  V30 548 1 749 750
M  V30 549 1 754 752
M  V30 550 1 752 753
M  V30 551 1 757 755
M  V30 552 1 755 756
M  V30 553 1 759 758
M  V30 554 1 758 760
M  V30 555 1 763 761
M  V30 556 1 761 762
M  V30 557 1 765 764
M  V30 558 1 764 766
M  V30 559 1 769 767
M  V30 560 1 767 768
M  V30 561 1 770 772
M  V30 562 1 770 771
M  V30 563 1 775 773
M  V30 564 1 773 774
M  V30 565 1 778 776
M  V30 566 1 776 777
M  V30 567 1 781 779
M  V30 568 1 779 780
M  V30 569 1 782 783
M  V30 570 1 782 784
M  V30 571 1 785 787
M  V30 572 1 785 786
M  V30 573 1 790 788
M  V30 574 1 788 789
M  V30 575 1 791 792
M  V30 576 1 791 793
M  V30 577 1 795 794
M  V30 578 1 794 796
M  V30 579 1 798 797
M  V30 580 1 797 799
M  V30 581 1 802 800
M  V30 582 1 800 801
M  V30 583 1 803 804
M  V30 584 1 803 805
M  V30 585 1 807 806
M  V30 586 1 806 808
M  V30 587 1 810 809
M  V30 588 1 809 811
M  V30 589 1 813 812
M  V30 590 1 814 812
M  V30 591 1 816 815
M  V30 592 1 817 815
M  V30 593 1 819 818
M  V30 594 1 818 820
M  V30 595 1 823 821
M  V30 596 1 822 821
M  V30 597 1 825 824
M  V30 598 1 824 826
M  V30 599 1 829 827
M  V30 600 1 828 827
M  V30 601 1 830 832
M  V30 602 1 830 831
M  V30 603 1 835 833
M  V30 604 1 833 834
M  V30 605 1 838 836
M  V30 606 1 836 837
M  V30 607 1 840 839
M  V30 608 1 839 841
M  V30 609 1 843 842
M  V30 610 1 842 844
M  V30 611 1 846 845
M  V30 612 1 845 847
M  V30 613 1 849 848
M  V30 614 1 848 850
M  V30 615 1 853 851
M  V30 616 1 851 852
M  V30 617 1 856 854
M  V30 618 1 854 855
M  V30 619 1 857 859
M  V30 620 1 857 858
M  V30 621 1 861 860
M  V30 622 1 860 862
M  V30 623 1 864 863
M  V30 624 1 863 865
M  V30 625 1 867 866
M  V30 626 1 868 866
M  V30 627 1 870 869
M  V30 628 1 871 869
M  V30 629 1 873 872
M  V30 630 1 872 874
M  V30 631 1 876 875
M  V30 632 1 875 877
M  V30 633 1 879 878
M  V30 634 1 878 880
M  V30 635 1 881 883
M  V30 636 1 881 882
M  V30 637 1 886 884
M  V30 638 1 884 885
M  V30 639 1 889 887
M  V30 640 1 887 888
M  V30 641 1 892 890
M  V30 642 1 890 891
M  V30 643 1 894 893
M  V30 644 1 893 895
M  V30 645 1 897 896
M  V30 646 1 896 898
M  V30 647 1 900 899
M  V30 648 1 901 899
M  V30 649 1 904 902
M  V30 650 1 903 902
M  V30 651 1 907 905
M  V30 652 1 905 906
M  V30 653 1 910 908
M  V30 654 1 909 908
M  V30 655 1 911 913
M  V30 656 1 911 912
M  V30 657 1 915 914
M  V30 658 1 914 916
M  V30 659 1 918 917
M  V30 660 1 917 919
M  V30 661 1 920 921
M  V30 662 1 920 922
M  V30 663 1 925 923
M  V30 664 1 923 924
M  V30 665 1 928 926
M  V30 666 1 926 927
M  V30 667 1 931 929
M  V30 668 1 929 930
M  V30 669 1 934 932
M  V30 670 1 932 933
M  V30 671 1 937 935
M  V30 672 1 936 935
M  V30 673 1 938 940
M  V30 674 1 938 939
M  V30 675 1 941 943
M  V30 676 1 941 942
M  V30 677 1 945 944
M  V30 678 1 946 944
M  V30 679 1 949 947
M  V30 680 1 947 948
M  V30 681 1 950 952
M  V30 682 1 950 951
M  V30 683 1 954 953
M  V30 684 1 953 955
M  V30 685 1 957 956
M  V30 686 1 956 958
M  V30 687 1 960 959
M  V30 688 1 961 959
M  V30 689 1 962 963
M  V30 690 1 962 964
M  V30 691 1 967 965
M  V30 692 1 966 965
M  V30 693 1 969 968
M  V30 694 1 968 970
M  V30 695 1 973 971
M  V30 696 1 972 971
M  V30 697 1 976 974
M  V30 698 1 974 975
M  V30 699 1 978 977
M  V30 700 1 977 979
M  V30 701 1 982 980
M  V30 702 1 980 981
M  V30 703 1 984 983
M  V30 704 1 983 985
M  V30 705 1 987 986
M  V30 706 1 988 986
M  V30 707 1 990 989
M  V30 708 1 989 991
M  V30 709 1 993 992
M  V30 710 1 992 994
M  V30 711 1 996 995
M  V30 712 1 995 997
M  V30 713 1 998 999
M  V30 714 1 998 1000
M  V30 715 1 1002 1001
M  V30 716 1 1001 1003
M  V30 717 1 1005 1004
M  V30 718 1 1004 1006
M  V30 719 1 1008 1007
M  V30 720 1 1007 1009
M  V30 721 1 1012 1010
M  V30 722 1 1010 1011
M  V30 723 1 1014 1013
M  V30 724 1 1013 1015
M  V30 725 1 1018 1016
M  V30 726 1 1017 1016
M  V30 727 1 1021 1019
M  V30 728 1 1019 1020
M  V30 729 1 1024 1022
M  V30 730 1 1022 1023
M  V30 731 1 1025 1027
M  V30 732 1 1025 1026
M  V30 733 1 1028 1029
M  V30 734 1 1028 1030
M  V30 735 1 1032 1031
M  V30 736 1 1031 1033
M  V30 737 1 1035 1034
M  V30 738 1 1036 1034
M  V30 739 1 1038 1037
M  V30 740 1 1039 1037
M  V30 741 1 1042 1040
M  V30 742 1 1041 1040
M  V30 743 1 1045 1043
M  V30 744 1 1044 1043
M  V30 745 1 1047 1046
M  V30 746 1 1046 1048
M  V30 747 1 1050 1049
M  V30 748 1 1049 1051
M  V30 749 1 1054 1052
M  V30 750 1 1052 1053
M  V30 751 1 1056 1055
M  V30 752 1 1055 1057
M  V30 753 1 1059 1058
M  V30 754 1 1058 1060
M  V30 755 1 1063 1061
M  V30 756 1 1061 1062
M  V30 757 1 1065 1064
M  V30 758 1 1064 1066
M  V30 759 1 1067 1068
M  V30 760 1 1067 1069
M  V30 761 1 1070 1072
M  V30 762 1 1070 1071
M  V30 763 1 1074 1073
M  V30 764 1 1073 1075
M  V30 765 1 1076 1077
M  V30 766 1 1076 1078
M  V30 767 1 1080 1079
M  V30 768 1 1079 1081
M  V30 769 1 1083 1082
M  V30 770 1 1082 1084
M  V30 771 1 1086 1085
M  V30 772 1 1085 1087
M  V30 773 1 1088 1090
M  V30 774 1 1088 1089
M  V30 775 1 1091 1092
M  V30 776 1 1091 1093
M  V30 777 1 1096 1094
M  V30 778 1 1095 1094
M  V30 779 1 1097 1098
M  V30 780 1 1097 1099
M  V30 781 1 1101 1100
M  V30 782 1 1100 1102
M  V30 783 1 1104 1103
M  V30 784 1 1105 1103
M  V30 785 1 1108 1106
M  V30 786 1 1106 1107
M  V30 787 1 1110 1109
M  V30 788 1 1109 1111
M  V30 789 1 1113 1112
M  V30 790 1 1112 1114
M  V30 791 1 1116 1115
M  V30 792 1 1115 1117
M  V30 793 1 1119 1118
M  V30 794 1 1118 1120
M  V30 795 1 1122 1121
M  V30 796 1 1121 1123
M  V30 797 1 1125 1124
M  V30 798 1 1124 1126
M  V30 799 1 1129 1127
M  V30 800 1 1127 1128
M  V30 801 1 1131 1130
M  V30 802 1 1130 1132
M  V30 803 1 1134 1133
M  V30 804 1 1133 1135
M  V30 805 1 1137 1136
M  V30 806 1 1136 1138
M  V30 807 1 1140 1139
M  V30 808 1 1139 1141
M  V30 809 1 1144 1142
M  V30 810 1 1143 1142
M  V30 811 1 1147 1145
M  V30 812 1 1146 1145
M  V30 813 1 1149 1148
M  V30 814 1 1150 1148
M  V30 815 1 1151 1153
M  V30 816 1 1151 1152
M  V30 817 1 1156 1154
M  V30 818 1 1154 1155
M  V30 819 1 1159 1157
M  V30 820 1 1158 1157
M  V30 821 1 1161 1160
M  V30 822 1 1162 1160
M  V30 823 1 1163 1165
M  V30 824 1 1163 1164
M  V30 825 1 1167 1166
M  V30 826 1 1166 1168
M  V30 827 1 1171 1169
M  V30 828 1 1170 1169
M  V30 829 1 1172 1174
M  V30 830 1 1172 1173
M  V30 831 1 1175 1176
M  V30 832 1 1175 1177
M  V30 833 1 1179 1178
M  V30 834 1 1178 1180
M  V30 835 1 1183 1181
M  V30 836 1 1181 1182
M  V30 837 1 1185 1184
M  V30 838 1 1184 1186
M  V30 839 1 1189 1187
M  V30 840 1 1188 1187
M  V30 841 1 1190 1191
M  V30 842 1 1190 1192
M  V30 843 1 1193 1194
M  V30 844 1 1193 1195
M  V30 845 1 1197 1196
M  V30 846 1 1196 1198
M  V30 847 1 1199 1200
M  V30 848 1 1199 1201
M  V30 849 1 1202 1204
M  V30 850 1 1202 1203
M  V30 851 1 1206 1205
M  V30 852 1 1205 1207
M  V30 853 1 1210 1208
M  V30 854 1 1208 1209
M  V30 855 1 1212 1211
M  V30 856 1 1211 1213
M  V30 857 1 1216 1214
M  V30 858 1 1214 1215
M  V30 859 1 1219 1217
M  V30 860 1 1217 1218
M  V30 861 1 1221 1220
M  V30 862 1 1222 1220
M  V30 863 1 1223 1224
M  V30 864 1 1223 1225
M  V30 865 1 1228 1226
M  V30 866 1 1227 1226
M  V30 867 1 1231 1229
M  V30 868 1 1229 1230
M  V30 869 1 1233 1232
M  V30 870 1 1234 1232
M  V30 871 1 1235 1236
M  V30 872 1 1235 1237
M  V30 873 1 1238 1240
M  V30 874 1 1238 1239
M  V30 875 1 1241 1242
M  V30 876 1 1241 1243
M  V30 877 1 1245 1244
M  V30 878 1 1244 1246
M  V30 879 1 1247 1249
M  V30 880 1 1247 1248
M  V30 881 1 1250 1252
M  V30 882 1 1250 1251
M  V30 883 1 1255 1253
M  V30 884 1 1253 1254
M  V30 885 1 1257 1256
M  V30 886 1 1258 1256
M  V30 887 1 1259 1261
M  V30 888 1 1259 1260
M  V30 889 1 1263 1262
M  V30 890 1 1262 1264
M  V30 891 1 1266 1265
M  V30 892 1 1267 1265
M  V30 893 1 1270 1268
M  V30 894 1 1268 1269
M  V30 895 1 1273 1271
M  V30 896 1 1271 1272
M  V30 897 1 1274 1276
M  V30 898 1 1274 1275
M  V30 899 1 1278 1277
M  V30 900 1 1279 1277
M  V30 901 1 1282 1280
M  V30 902 1 1280 1281
M  V30 903 1 1285 1283
M  V30 904 1 1284 1283
M  V30 905 1 1288 1286
M  V30 906 1 1286 1287
M  V30 907 1 1289 1291
M  V30 908 1 1289 1290
M  V30 909 1 1293 1292
M  V30 910 1 1292 1294
M  V30 911 1 1295 1297
M  V30 912 1 1295 1296
M  V30 913 1 1299 1298
M  V30 914 1 1298 1300
M  V30 915 1 1302 1301
M  V30 916 1 1301 1303
M  V30 917 1 1306 1304
M  V30 918 1 1304 1305
M  V30 919 1 1307 1308
M  V30 920 1 1307 1309
M  V30 921 1 1311 1310
M  V30 922 1 1310 1312
M  V30 923 1 1315 1313
M  V30 924 1 1313 1314
M  V30 925 1 1316 1318
M  V30 926 1 1316 1317
M  V30 927 1 1321 1319
M  V30 928 1 1320 1319
M  V30 929 1 1324 1322
M  V30 930 1 1322 1323
M  V30 931 1 1325 1326
M  V30 932 1 1325 1327
M  V30 933 1 1329 1328
M  V30 934 1 1330 1328
M  V30 935 1 1332 1331
M  V30 936 1 1331 1333
M  V30 937 1 1335 1334
M  V30 938 1 1334 1336
M  V30 939 1 1339 1337
M  V30 940 1 1337 1338
M  V30 941 1 1342 1340
M  V30 942 1 1340 1341
M  V30 943 1 1345 1343
M  V30 944 1 1343 1344
M  V30 945 1 1348 1346
M  V30 946 1 1346 1347
M  V30 947 1 1349 1350
M  V30 948 1 1349 1351
M  V30 949 1 1353 1352
M  V30 950 1 1352 1354
M  V30 951 1 1357 1355
M  V30 952 1 1355 1356
M  V30 953 1 1359 1358
M  V30 954 1 1358 1360
M  V30 955 1 1362 1361
M  V30 956 1 1361 1363
M  V30 957 1 1366 1364
M  V30 958 1 1364 1365
M  V30 959 1 1368 1367
M  V30 960 1 1367 1369
M  V30 961 1 1370 1371
M  V30 962 1 1370 1372
M  V30 963 1 1373 1374
M  V30 964 1 1373 1375
M  V30 965 1 1378 1376
M  V30 966 1 1376 1377
M  V30 967 1 1379 1380
M  V30 968 1 1379 1381
M  V30 969 1 1382 1383
M  V30 970 1 1382 1384
M  V30 971 1 1385 1386
M  V30 972 1 1385 1387
M  V30 973 1 1389 1388
M  V30 974 1 1388 1390
M  V30 975 1 1392 1391
M  V30 976 1 1393 1391
M  V30 977 1 1396 1394
M  V30 978 1 1395 1394
M  V30 979 1 1397 1399
M  V30 980 1 1397 1398
M  V30 981 1 1402 1400
M  V30 982 1 1400 1401
M  V30 983 1 1405 1403
M  V30 984 1 1403 1404
M  V30 985 1 1407 1406
M  V30 986 1 1406 1408
M  V30 987 1 1410 1409
M  V30 988 1 1411 1409
M  V30 989 1 1413 1412
M  V30 990 1 1412 1414
M  V30 991 1 1415 1417
M  V30 992 1 1415 1416
M  V30 993 1 1418 1420
M  V30 994 1 1418 1419
M  V30 995 1 1422 1421
M  V30 996 1 1421 1423
M  V30 997 1 1425 1424
M  V30 998 1 1424 1426
M  V30 999 1 1429 1427
M  V30 1000 1 1428 1427
M  V30 1001 1 1432 1430
M  V30 1002 1 1431 1430
M  V30 1003 1 1435 1433
M  V30 1004 1 1434 1433
M  V30 1005 1 1437 1436
M  V30 1006 1 1436 1438
M  V30 1007 1 1440 1439
M  V30 1008 1 1439 1441
M  V30 1009 1 1444 1442
M  V30 1010 1 1443 1442
M  V30 1011 1 1446 1445
M  V30 1012 1 1447 1445
M  V30 1013 1 1450 1448
M  V30 1014 1 1448 1449
M  V30 1015 1 1451 1452
M  V30 1016 1 1451 1453
M  V30 1017 1 1456 1454
M  V30 1018 1 1454 1455
M  V30 1019 1 1459 1457
M  V30 1020 1 1458 1457
M  V30 1021 1 1460 1461
M  V30 1022 1 1460 1462
M  V30 1023 1 1463 1465
M  V30 1024 1 1463 1464
M  V30 1025 1 1466 1468
M  V30 1026 1 1466 1467
M  V30 1027 1 1471 1469
M  V30 1028 1 1469 1470
M  V30 1029 1 1472 1473
M  V30 1030 1 1472 1474
M  V30 1031 1 1476 1475
M  V30 1032 1 1477 1475
M  V30 1033 1 1479 1478
M  V30 1034 1 1478 1480
M  V30 1035 1 1482 1481
M  V30 1036 1 1481 1483
M  V30 1037 1 1485 1484
M  V30 1038 1 1486 1484
M  V30 1039 1 1489 1487
M  V30 1040 1 1487 1488
M  V30 1041 1 1491 1490
M  V30 1042 1 1490 1492
M  V30 1043 1 1494 1493
M  V30 1044 1 1493 1495
M  V30 1045 1 1497 1496
M  V30 1046 1 1498 1496
M  V30 1047 1 1500 1499
M  V30 1048 1 1499 1501
M  V30 1049 1 1503 1502
M  V30 1050 1 1502 1504
M  V30 1051 1 1506 1505
M  V30 1052 1 1505 1507
M  V30 1053 1 1508 1510
M  V30 1054 1 1508 1509
M  V30 1055 1 1512 1511
M  V30 1056 1 1513 1511
M  V30 1057 1 1514 1516
M  V30 1058 1 1514 1515
M  V30 1059 1 1519 1517
M  V30 1060 1 1517 1518
M  V30 1061 1 1520 1522
M  V30 1062 1 1520 1521
M  V30 1063 1 1524 1523
M  V30 1064 1 1525 1523
M  V30 1065 1 1528 1526
M  V30 1066 1 1527 1526
M  V30 1067 1 1530 1529
M  V30 1068 1 1529 1531
M  V30 1069 1 1532 1533
M  V30 1070 1 1532 1534
M  V30 1071 1 1535 1537
M  V30 1072 1 1535 1536
M  V30 1073 1 1538 1540
M  V30 1074 1 1538 1539
M  V30 1075 1 1542 1541
M  V30 1076 1 1541 1543
M  V30 1077 1 1545 1544
M  V30 1078 1 1544 1546
M  V30 1079 1 1548 1547
M  V30 1080 1 1547 1549
M  V30 1081 1 1551 1550
M  V30 1082 1 1550 1552
M  V30 1083 1 1553 1554
M  V30 1084 1 1553 1555
M  V30 1085 1 1556 1558
M  V30 1086 1 1556 1557
M  V30 1087 1 1561 1559
M  V30 1088 1 1559 1560
M  V30 1089 1 1562 1563
M  V30 1090 1 1562 1564
M  V30 1091 1 1565 1566
M  V30 1092 1 1565 1567
M  V30 1093 1 1569 1568
M  V30 1094 1 1568 1570
M  V30 1095 1 1572 1571
M  V30 1096 1 1571 1573
M  V30 1097 1 1575 1574
M  V30 1098 1 1576 1574
M  V30 1099 1 1578 1577
M  V30 1100 1 1577 1579
M  V30 1101 1 1581 1580
M  V30 1102 1 1580 1582
M  V30 1103 1 1584 1583
M  V30 1104 1 1583 1585
M  V30 1105 1 1588 1586
M  V30 1106 1 1586 1587
M  V30 1107 1 1590 1589
M  V30 1108 1 1591 1589
M  V30 1109 1 1593 1592
M  V30 1110 1 1592 1594
M  V30 1111 1 1596 1595
M  V30 1112 1 1595 1597
M  V30 1113 1 1600 1598
M  V30 1114 1 1598 1599
M  V30 1115 1 1602 1601
M  V30 1116 1 1601 1603
M  V30 1117 1 1604 1605
M  V30 1118 1 1604 1606
M  V30 1119 1 1609 1607
M  V30 1120 1 1607 1608
M  V30 1121 1 1611 1610
M  V30 1122 1 1610 1612
M  V30 1123 1 1613 1615
M  V30 1124 1 1613 1614
M  V30 1125 1 1617 1616
M  V30 1126 1 1616 1618
M  V30 1127 1 1619 1620
M  V30 1128 1 1619 1621
M  V30 1129 1 1624 1622
M  V30 1130 1 1622 1623
M  V30 1131 1 1627 1625
M  V30 1132 1 1626 1625
M  V30 1133 1 1630 1628
M  V30 1134 1 1629 1628
M  V30 1135 1 1632 1631
M  V30 1136 1 1633 1631
M  V30 1137 1 1635 1634
M  V30 1138 1 1634 1636
M  V30 1139 1 1639 1637
M  V30 1140 1 1637 1638
M  V30 1141 1 1641 1640
M  V30 1142 1 1640 1642
M  V30 1143 1 1645 1643
M  V30 1144 1 1643 1644
M  V30 1145 1 1648 1646
M  V30 1146 1 1646 1647
M  V30 1147 1 1650 1649
M  V30 1148 1 1649 1651
M  V30 1149 1 1654 1652
M  V30 1150 1 1653 1652
M  V30 1151 1 1656 1655
M  V30 1152 1 1655 1657
M  V30 1153 1 1659 1658
M  V30 1154 1 1658 1660
M  V30 1155 1 1662 1661
M  V30 1156 1 1661 1663
M  V30 1157 1 1664 1666
M  V30 1158 1 1664 1665
M  V30 1159 1 1668 1667
M  V30 1160 1 1667 1669
M  V30 1161 1 1671 1670
M  V30 1162 1 1672 1670
M  V30 1163 1 1673 1675
M  V30 1164 1 1673 1674
M  V30 1165 1 1677 1676
M  V30 1166 1 1676 1678
M  V30 1167 1 1680 1679
M  V30 1168 1 1681 1679
M  V30 1169 1 1683 1682
M  V30 1170 1 1682 1684
M  V30 1171 1 1687 1685
M  V30 1172 1 1686 1685
M  V30 1173 1 1689 1688
M  V30 1174 1 1688 1690
M  V30 1175 1 1691 1693
M  V30 1176 1 1691 1692
M  V30 1177 1 1696 1694
M  V30 1178 1 1695 1694
M  V30 1179 1 1697 1699
M  V30 1180 1 1697 1698
M  V30 1181 1 1702 1700
M  V30 1182 1 1701 1700
M  V30 1183 1 1703 1705
M  V30 1184 1 1703 1704
M  V30 1185 1 1708 1706
M  V30 1186 1 1706 1707
M  V30 1187 1 1710 1709
M  V30 1188 1 1709 1711
M  V30 1189 1 1714 1712
M  V30 1190 1 1712 1713
M  V30 1191 1 1717 1715
M  V30 1192 1 1715 1716
M  V30 1193 1 1718 1719
M  V30 1194 1 1718 1720
M  V30 1195 1 1722 1721
M  V30 1196 1 1721 1723
M  V30 1197 1 1725 1724
M  V30 1198 1 1726 1724
M  V30 1199 1 1729 1727
M  V30 1200 1 1727 1728
M  V30 1201 1 1732 1730
M  V30 1202 1 1730 1731
M  V30 1203 1 1735 1733
M  V30 1204 1 1733 1734
M  V30 1205 1 1736 1737
M  V30 1206 1 1736 1738
M  V30 1207 1 1740 1739
M  V30 1208 1 1739 1741
M  V30 1209 1 1744 1742
M  V30 1210 1 1742 1743
M  V30 1211 1 1747 1745
M  V30 1212 1 1746 1745
M  V30 1213 1 1750 1748
M  V30 1214 1 1749 1748
M  V30 1215 1 1752 1751
M  V30 1216 1 1751 1753
M  V30 1217 1 1755 1754
M  V30 1218 1 1754 1756
M  V30 1219 1 1757 1758
M  V30 1220 1 1757 1759
M  V30 1221 1 1761 1760
M  V30 1222 1 1760 1762
M  V30 1223 1 1765 1763
M  V30 1224 1 1763 1764
M  V30 1225 1 1768 1766
M  V30 1226 1 1766 1767
M  V30 1227 1 1771 1769
M  V30 1228 1 1770 1769
M  V30 1229 1 1774 1772
M  V30 1230 1 1773 1772
M  V30 1231 1 1775 1776
M  V30 1232 1 1775 1777
M  V30 1233 1 1780 1778
M  V30 1234 1 1779 1778
M  V30 1235 1 1783 1781
M  V30 1236 1 1781 1782
M  V30 1237 1 1786 1784
M  V30 1238 1 1785 1784
M  V30 1239 1 1789 1787
M  V30 1240 1 1787 1788
M  V30 1241 1 1790 1791
M  V30 1242 1 1790 1792
M  V30 1243 1 1795 1793
M  V30 1244 1 1793 1794
M  V30 1245 1 1796 1797
M  V30 1246 1 1796 1798
M  V30 1247 1 1801 1799
M  V30 1248 1 1800 1799
M  V30 1249 1 1804 1802
M  V30 1250 1 1802 1803
M  V30 1251 1 1806 1805
M  V30 1252 1 1807 1805
M  V30 1253 1 1809 1808
M  V30 1254 1 1808 1810
M  V30 1255 1 1813 1811
M  V30 1256 1 1812 1811
M  V30 1257 1 1816 1814
M  V30 1258 1 1814 1815
M  V30 1259 1 1819 1817
M  V30 1260 1 1817 1818
M  V30 1261 1 1821 1820
M  V30 1262 1 1822 1820
M  V30 1263 1 1823 1825
M  V30 1264 1 1823 1824
M  V30 1265 1 1828 1826
M  V30 1266 1 1827 1826
M  V30 1267 1 1830 1829
M  V30 1268 1 1831 1829
M  V30 1269 1 1834 1832
M  V30 1270 1 1833 1832
M  V30 1271 1 1837 1835
M  V30 1272 1 1835 1836
M  V30 1273 1 1840 1838
M  V30 1274 1 1838 1839
M  V30 1275 1 1842 1841
M  V30 1276 1 1841 1843
M  V30 1277 1 1845 1844
M  V30 1278 1 1844 1846
M  V30 1279 1 1847 1848
M  V30 1280 1 1847 1849
M  V30 1281 1 1851 1850
M  V30 1282 1 1850 1852
M  V30 1283 1 1854 1853
M  V30 1284 1 1853 1855
M  V30 1285 1 1857 1856
M  V30 1286 1 1856 1858
M  V30 1287 1 1859 1860
M  V30 1288 1 1859 1861
M  V30 1289 1 1864 1862
M  V30 1290 1 1863 1862
M  V30 1291 1 1866 1865
M  V30 1292 1 1867 1865
M  V30 1293 1 1869 1868
M  V30 1294 1 1868 1870
M  V30 1295 1 1873 1871
M  V30 1296 1 1871 1872
M  V30 1297 1 1874 1876
M  V30 1298 1 1874 1875
M  V30 1299 1 1879 1877
M  V30 1300 1 1878 1877
M  V30 1301 1 1882 1880
M  V30 1302 1 1880 1881
M  V30 1303 1 1883 1884
M  V30 1304 1 1883 1885
M  V30 1305 1 1887 1886
M  V30 1306 1 1886 1888
M  V30 1307 1 1891 1889
M  V30 1308 1 1889 1890
M  V30 1309 1 1894 1892
M  V30 1310 1 1892 1893
M  V30 1311 1 1896 1895
M  V30 1312 1 1895 1897
M  V30 1313 1 1898 1899
M  V30 1314 1 1898 1900
M  V30 1315 1 1902 1901
M  V30 1316 1 1903 1901
M  V30 1317 1 1906 1904
M  V30 1318 1 1904 1905
M  V30 1319 1 1908 1907
M  V30 1320 1 1909 1907
M  V30 1321 1 1912 1910
M  V30 1322 1 1910 1911
M  V30 1323 1 1913 1915
M  V30 1324 1 1913 1914
M  V30 1325 1 1917 1916
M  V30 1326 1 1916 1918
M  V30 1327 1 1920 1919
M  V30 1328 1 1919 1921
M  V30 1329 1 1922 1923
M  V30 1330 1 1922 1924
M  V30 1331 1 1926 1925
M  V30 1332 1 1925 1927
M  V30 1333 1 1929 1928
M  V30 1334 1 1928 1930
M  V30 1335 1 1932 1931
M  V30 1336 1 1931 1933
M  V30 1337 1 1935 1934
M  V30 1338 1 1934 1936
M  V30 1339 1 1939 1937
M  V30 1340 1 1938 1937
M  V30 1341 1 1941 1940
M  V30 1342 1 1940 1942
M  V30 1343 1 1945 1943
M  V30 1344 1 1944 1943
M  V30 1345 1 1948 1946
M  V30 1346 1 1946 1947
M  V30 1347 1 1949 1951
M  V30 1348 1 1949 1950
M  V30 1349 1 1953 1952
M  V30 1350 1 1952 1954
M  V30 1351 1 1955 1957
M  V30 1352 1 1955 1956
M  V30 1353 1 1959 1958
M  V30 1354 1 1960 1958
M  V30 1355 1 1962 1961
M  V30 1356 1 1963 1961
M  V30 1357 1 1966 1964
M  V30 1358 1 1964 1965
M  V30 1359 1 1967 1969
M  V30 1360 1 1967 1968
M  V30 1361 1 1972 1970
M  V30 1362 1 1970 1971
M  V30 1363 1 1975 1973
M  V30 1364 1 1974 1973
M  V30 1365 1 1977 1976
M  V30 1366 1 1976 1978
M  V30 1367 1 1980 1979
M  V30 1368 1 1979 1981
M  V30 1369 1 1983 1982
M  V30 1370 1 1982 1984
M  V30 1371 1 1986 1985
M  V30 1372 1 1987 1985
M  V30 1373 1 1988 1989
M  V30 1374 1 1988 1990
M  V30 1375 1 1993 1991
M  V30 1376 1 1992 1991
M  V30 1377 1 1995 1994
M  V30 1378 1 1996 1994
M  V30 1379 1 1999 1997
M  V30 1380 1 1998 1997
M  V30 1381 1 2001 2000
M  V30 1382 1 2000 2002
M  V30 1383 1 2003 2005
M  V30 1384 1 2003 2004
M  V30 1385 1 2006 2008
M  V30 1386 1 2006 2007
M  V30 1387 1 2010 2009
M  V30 1388 1 2011 2009
M  V30 1389 1 2014 2012
M  V30 1390 1 2013 2012
M  V30 1391 1 2016 2015
M  V30 1392 1 2017 2015
M  V30 1393 1 2019 2018
M  V30 1394 1 2018 2020
M  V30 1395 1 2023 2021
M  V30 1396 1 2021 2022
M  V30 1397 1 2024 2026
M  V30 1398 1 2024 2025
M  V30 1399 1 2029 2027
M  V30 1400 1 2027 2028
M  V30 1401 1 2030 2032
M  V30 1402 1 2030 2031
M  V30 1403 1 2033 2034
M  V30 1404 1 2033 2035
M  V30 1405 1 2037 2036
M  V30 1406 1 2036 2038
M  V30 1407 1 2039 2040
M  V30 1408 1 2039 2041
M  V30 1409 1 2043 2042
M  V30 1410 1 2042 2044
M  V30 1411 1 2046 2045
M  V30 1412 1 2045 2047
M  V30 1413 1 2049 2048
M  V30 1414 1 2048 2050
M  V30 1415 1 2053 2051
M  V30 1416 1 2051 2052
M  V30 1417 1 2054 2055
M  V30 1418 1 2054 2056
M  V30 1419 1 2059 2057
M  V30 1420 1 2057 2058
M  V30 1421 1 2062 2060
M  V30 1422 1 2061 2060
M  V30 1423 1 2064 2063
M  V30 1424 1 2063 2065
M  V30 1425 1 2068 2066
M  V30 1426 1 2066 2067
M  V30 1427 1 2071 2069
M  V30 1428 1 2069 2070
M  V30 1429 1 2072 2073
M  V30 1430 1 2072 2074
M  V30 1431 1 2077 2075
M  V30 1432 1 2075 2076
M  V30 1433 1 2079 2078
M  V30 1434 1 2078 2080
M  V30 1435 1 2083 2081
M  V30 1436 1 2081 2082
M  V30 1437 1 2084 2086
M  V30 1438 1 2084 2085
M  V30 1439 1 2089 2087
M  V30 1440 1 2087 2088
M  V30 1441 1 2090 2091
M  V30 1442 1 2090 2092
M  V30 1443 1 2095 2093
M  V30 1444 1 2094 2093
M  V30 1445 1 2098 2096
M  V30 1446 1 2096 2097
M  V30 1447 1 2101 2099
M  V30 1448 1 2099 2100
M  V30 1449 1 2102 2104
M  V30 1450 1 2102 2103
M  V30 1451 1 2107 2105
M  V30 1452 1 2105 2106
M  V30 1453 1 2110 2108
M  V30 1454 1 2108 2109
M  V30 1455 1 2112 2111
M  V30 1456 1 2111 2113
M  V30 1457 1 2114 2116
M  V30 1458 1 2114 2115
M  V30 1459 1 2119 2117
M  V30 1460 1 2117 2118
M  V30 1461 1 2122 2120
M  V30 1462 1 2120 2121
M  V30 1463 1 2124 2123
M  V30 1464 1 2123 2125
M  V30 1465 1 2126 2128
M  V30 1466 1 2126 2127
M  V30 1467 1 2130 2129
M  V30 1468 1 2129 2131
M  V30 1469 1 2133 2132
M  V30 1470 1 2132 2134
M  V30 1471 1 2136 2135
M  V30 1472 1 2135 2137
M  V30 1473 1 2139 2138
M  V30 1474 1 2138 2140
M  V30 1475 1 2141 2142
M  V30 1476 1 2141 2143
M  V30 1477 1 2146 2144
M  V30 1478 1 2145 2144
M  V30 1479 1 2149 2147
M  V30 1480 1 2148 2147
M  V30 1481 1 2152 2150
M  V30 1482 1 2151 2150
M  V30 1483 1 2155 2153
M  V30 1484 1 2153 2154
M  V30 1485 1 2157 2156
M  V30 1486 1 2156 2158
M  V30 1487 1 2160 2159
M  V30 1488 1 2159 2161
M  V30 1489 1 2162 2164
M  V30 1490 1 2162 2163
M  V30 1491 1 2167 2165
M  V30 1492 1 2165 2166
M  V30 1493 1 2170 2168
M  V30 1494 1 2168 2169
M  V30 1495 1 2173 2171
M  V30 1496 1 2171 2172
M  V30 1497 1 2176 2174
M  V30 1498 1 2174 2175
M  V30 1499 1 2179 2177
M  V30 1500 1 2177 2178
M  V30 1501 1 2181 2180
M  V30 1502 1 2180 2182
M  V30 1503 1 2184 2183
M  V30 1504 1 2183 2185
M  V30 1505 1 2188 2186
M  V30 1506 1 2187 2186
M  V30 1507 1 2190 2189
M  V30 1508 1 2189 2191
M  V30 1509 1 2192 2194
M  V30 1510 1 2192 2193
M  V30 1511 1 2195 2197
M  V30 1512 1 2195 2196
M  V30 1513 1 2200 2198
M  V30 1514 1 2199 2198
M  V30 1515 1 2203 2201
M  V30 1516 1 2201 2202
M  V30 1517 1 2206 2204
M  V30 1518 1 2205 2204
M  V30 1519 1 2208 2207
M  V30 1520 1 2209 2207
M  V30 1521 1 2212 2210
M  V30 1522 1 2210 2211
M  V30 1523 1 2213 2215
M  V30 1524 1 2213 2214
M  V30 1525 1 2216 2217
M  V30 1526 1 2216 2218
M  V30 1527 1 2219 2221
M  V30 1528 1 2219 2220
M  V30 1529 1 2223 2222
M  V30 1530 1 2222 2224
M  V30 1531 1 2227 2225
M  V30 1532 1 2225 2226
M  V30 1533 1 2228 2229
M  V30 1534 1 2228 2230
M  V30 1535 1 2232 2231
M  V30 1536 1 2231 2233
M  V30 1537 1 2235 2234
M  V30 1538 1 2234 2236
M  V30 1539 1 2238 2237
M  V30 1540 1 2237 2239
M  V30 1541 1 2242 2240
M  V30 1542 1 2241 2240
M  V30 1543 1 2245 2243
M  V30 1544 1 2243 2244
M  V30 1545 1 2246 2248
M  V30 1546 1 2246 2247
M  V30 1547 1 2249 2251
M  V30 1548 1 2249 2250
M  V30 1549 1 2253 2252
M  V30 1550 1 2252 2254
M  V30 1551 1 2257 2255
M  V30 1552 1 2255 2256
M  V30 1553 1 2260 2258
M  V30 1554 1 2258 2259
M  V30 1555 1 2262 2261
M  V30 1556 1 2263 2261
M  V30 1557 1 2265 2264
M  V30 1558 1 2264 2266
M  V30 1559 1 2269 2267
M  V30 1560 1 2268 2267
M  V30 1561 1 2272 2270
M  V30 1562 1 2270 2271
M  V30 1563 1 2275 2273
M  V30 1564 1 2273 2274
M  V30 1565 1 2278 2276
M  V30 1566 1 2276 2277
M  V30 1567 1 2280 2279
M  V30 1568 1 2279 2281
M  V30 1569 1 2283 2282
M  V30 1570 1 2282 2284
M  V30 1571 1 2286 2285
M  V30 1572 1 2285 2287
M  V30 1573 1 2290 2288
M  V30 1574 1 2288 2289
M  V30 1575 1 2293 2291
M  V30 1576 1 2291 2292
M  V30 1577 1 2296 2294
M  V30 1578 1 2295 2294
M  V30 1579 1 2298 2297
M  V30 1580 1 2299 2297
M  V30 1581 1 2302 2300
M  V30 1582 1 2300 2301
M  V30 1583 1 2303 2304
M  V30 1584 1 2303 2305
M  V30 1585 1 2306 2308
M  V30 1586 1 2306 2307
M  V30 1587 1 2310 2309
M  V30 1588 1 2309 2311
M  V30 1589 1 2314 2312
M  V30 1590 1 2313 2312
M  V30 1591 1 2316 2315
M  V30 1592 1 2315 2317
M  V30 1593 1 2318 2319
M  V30 1594 1 2318 2320
M  V30 1595 1 2322 2321
M  V30 1596 1 2323 2321
M  V30 1597 1 2326 2324
M  V30 1598 1 2324 2325
M  V30 1599 1 2329 2327
M  V30 1600 1 2328 2327
M  V30 1601 1 2331 2330
M  V30 1602 1 2330 2332
M  V30 1603 1 2335 2333
M  V30 1604 1 2334 2333
M  V30 1605 1 2338 2336
M  V30 1606 1 2336 2337
M  V30 1607 1 2340 2339
M  V30 1608 1 2339 2341
M  V30 1609 1 2344 2342
M  V30 1610 1 2342 2343
M  V30 1611 1 2346 2345
M  V30 1612 1 2345 2347
M  V30 1613 1 2349 2348
M  V30 1614 1 2348 2350
M  V30 1615 1 2352 2351
M  V30 1616 1 2351 2353
M  V30 1617 1 2356 2354
M  V30 1618 1 2354 2355
M  V30 1619 1 2358 2357
M  V30 1620 1 2357 2359
M  V30 1621 1 2362 2360
M  V30 1622 1 2360 2361
M  V30 1623 1 2365 2363
M  V30 1624 1 2363 2364
M  V30 1625 1 2366 2367
M  V30 1626 1 2366 2368
M  V30 1627 1 2370 2369
M  V30 1628 1 2369 2371
M  V30 1629 1 2372 2374
M  V30 1630 1 2372 2373
M  V30 1631 1 2375 2376
M  V30 1632 1 2375 2377
M  V30 1633 1 2380 2378
M  V30 1634 1 2378 2379
M  V30 1635 1 2381 2382
M  V30 1636 1 2381 2383
M  V30 1637 1 2385 2384
M  V30 1638 1 2384 2386
M  V30 1639 1 2387 2388
M  V30 1640 1 2387 2389
M  V30 1641 1 2390 2391
M  V30 1642 1 2390 2392
M  V30 1643 1 2395 2393
M  V30 1644 1 2393 2394
M  V30 1645 1 2398 2396
M  V30 1646 1 2396 2397
M  V30 1647 1 2401 2399
M  V30 1648 1 2399 2400
M  V30 1649 1 2404 2402
M  V30 1650 1 2403 2402
M  V30 1651 1 2406 2405
M  V30 1652 1 2405 2407
M  V30 1653 1 2409 2408
M  V30 1654 1 2410 2408
M  V30 1655 1 2413 2411
M  V30 1656 1 2411 2412
M  V30 1657 1 2416 2414
M  V30 1658 1 2414 2415
M  V30 1659 1 2419 2417
M  V30 1660 1 2418 2417
M  V30 1661 1 2420 2422
M  V30 1662 1 2420 2421
M  V30 1663 1 2425 2423
M  V30 1664 1 2423 2424
M  V30 1665 1 2427 2426
M  V30 1666 1 2426 2428
M  V30 1667 1 2429 2430
M  V30 1668 1 2429 2431
M  V30 1669 1 2432 2434
M  V30 1670 1 2432 2433
M  V30 1671 1 2437 2435
M  V30 1672 1 2435 2436
M  V30 1673 1 2438 2440
M  V30 1674 1 2438 2439
M  V30 1675 1 2443 2441
M  V30 1676 1 2442 2441
M  V30 1677 1 2446 2444
M  V30 1678 1 2444 2445
M  V30 1679 1 2448 2447
M  V30 1680 1 2447 2449
M  V30 1681 1 2450 2452
M  V30 1682 1 2450 2451
M  V30 1683 1 2453 2455
M  V30 1684 1 2453 2454
M  V30 1685 1 2457 2456
M  V30 1686 1 2456 2458
M  V30 1687 1 2459 2460
M  V30 1688 1 2459 2461
M  V30 1689 1 2464 2462
M  V30 1690 1 2462 2463
M  V30 1691 1 2467 2465
M  V30 1692 1 2465 2466
M  V30 1693 1 2469 2468
M  V30 1694 1 2468 2470
M  V30 1695 1 2472 2471
M  V30 1696 1 2473 2471
M  V30 1697 1 2475 2474
M  V30 1698 1 2476 2474
M  V30 1699 1 2479 2477
M  V30 1700 1 2477 2478
M  V30 1701 1 2480 2481
M  V30 1702 1 2480 2482
M  V30 1703 1 2485 2483
M  V30 1704 1 2483 2484
M  V30 1705 1 2488 2486
M  V30 1706 1 2486 2487
M  V30 1707 1 2490 2489
M  V30 1708 1 2489 2491
M  V30 1709 1 2494 2492
M  V30 1710 1 2492 2493
M  V30 1711 1 2496 2495
M  V30 1712 1 2495 2497
M  V30 1713 1 2500 2498
M  V30 1714 1 2498 2499
M  V30 1715 1 2503 2501
M  V30 1716 1 2501 2502
M  V30 1717 1 2504 2505
M  V30 1718 1 2504 2506
M  V30 1719 1 2508 2507
M  V30 1720 1 2509 2507
M  V30 1721 1 2512 2510
M  V30 1722 1 2511 2510
M  V30 1723 1 2513 2514
M  V30 1724 1 2513 2515
M  V30 1725 1 2516 2518
M  V30 1726 1 2516 2517
M  V30 1727 1 2521 2519
M  V30 1728 1 2519 2520
M  V30 1729 1 2524 2522
M  V30 1730 1 2523 2522
M  V30 1731 1 2526 2525
M  V30 1732 1 2525 2527
M  V30 1733 1 2529 2528
M  V30 1734 1 2528 2530
M  V30 1735 1 2533 2531
M  V30 1736 1 2532 2531
M  V30 1737 1 2536 2534
M  V30 1738 1 2534 2535
M  V30 1739 1 2538 2537
M  V30 1740 1 2537 2539
M  V30 1741 1 2540 2542
M  V30 1742 1 2540 2541
M  V30 1743 1 2545 2543
M  V30 1744 1 2543 2544
M  V30 1745 1 2547 2546
M  V30 1746 1 2548 2546
M  V30 1747 1 2551 2549
M  V30 1748 1 2549 2550
M  V30 1749 1 2553 2552
M  V30 1750 1 2552 2554
M  V30 1751 1 2557 2555
M  V30 1752 1 2555 2556
M  V30 1753 1 2559 2558
M  V30 1754 1 2558 2560
M  V30 1755 1 2562 2561
M  V30 1756 1 2563 2561
M  V30 1757 1 2566 2564
M  V30 1758 1 2564 2565
M  V30 1759 1 2567 2568
M  V30 1760 1 2567 2569
M  V30 1761 1 2571 2570
M  V30 1762 1 2572 2570
M  V30 1763 1 2573 2575
M  V30 1764 1 2573 2574
M  V30 1765 1 2577 2576
M  V30 1766 1 2578 2576
M  V30 1767 1 2580 2579
M  V30 1768 1 2579 2581
M  V30 1769 1 2583 2582
M  V30 1770 1 2584 2582
M  V30 1771 1 2587 2585
M  V30 1772 1 2585 2586
M  V30 1773 1 2588 2590
M  V30 1774 1 2588 2589
M  V30 1775 1 2593 2591
M  V30 1776 1 2591 2592
M  V30 1777 1 2595 2594
M  V30 1778 1 2594 2596
M  V30 1779 1 2598 2597
M  V30 1780 1 2597 2599
M  V30 1781 1 2601 2600
M  V30 1782 1 2600 2602
M  V30 1783 1 2605 2603
M  V30 1784 1 2603 2604
M  V30 1785 1 2608 2606
M  V30 1786 1 2606 2607
M  V30 1787 1 2610 2609
M  V30 1788 1 2611 2609
M  V30 1789 1 2612 2614
M  V30 1790 1 2612 2613
M  V30 1791 1 2616 2615
M  V30 1792 1 2615 2617
M  V30 1793 1 2620 2618
M  V30 1794 1 2619 2618
M  V30 1795 1 2622 2621
M  V30 1796 1 2621 2623
M  V30 1797 1 2624 2625
M  V30 1798 1 2624 2626
M  V30 1799 1 2627 2629
M  V30 1800 1 2627 2628
M  V30 1801 1 2632 2630
M  V30 1802 1 2630 2631
M  V30 1803 1 2634 2633
M  V30 1804 1 2635 2633
M  V30 1805 1 2636 2638
M  V30 1806 1 2636 2637
M  V30 1807 1 2639 2641
M  V30 1808 1 2639 2640
M  V30 1809 1 2643 2642
M  V30 1810 1 2642 2644
M  V30 1811 1 2647 2645
M  V30 1812 1 2646 2645
M  V30 1813 1 2648 2650
M  V30 1814 1 2648 2649
M  V30 1815 1 2653 2651
M  V30 1816 1 2652 2651
M  V30 1817 1 2654 2656
M  V30 1818 1 2654 2655
M  V30 1819 1 2657 2658
M  V30 1820 1 2657 2659
M  V30 1821 1 2662 2660
M  V30 1822 1 2660 2661
M  V30 1823 1 2663 2665
M  V30 1824 1 2663 2664
M  V30 1825 1 2668 2666
M  V30 1826 1 2666 2667
M  V30 1827 1 2671 2669
M  V30 1828 1 2669 2670
M  V30 1829 1 2673 2672
M  V30 1830 1 2674 2672
M  V30 1831 1 2675 2677
M  V30 1832 1 2675 2676
M  V30 1833 1 2678 2679
M  V30 1834 1 2678 2680
M  V30 1835 1 2683 2681
M  V30 1836 1 2682 2681
M  V30 1837 1 2686 2684
M  V30 1838 1 2685 2684
M  V30 1839 1 2689 2687
M  V30 1840 1 2687 2688
M  V30 1841 1 2691 2690
M  V30 1842 1 2690 2692
M  V30 1843 1 2694 2693
M  V30 1844 1 2693 2695
M  V30 1845 1 2698 2696
M  V30 1846 1 2696 2697
M  V30 1847 1 2700 2699
M  V30 1848 1 2701 2699
M  V30 1849 1 2703 2702
M  V30 1850 1 2702 2704
M  V30 1851 1 2706 2705
M  V30 1852 1 2705 2707
M  V30 1853 1 2710 2708
M  V30 1854 1 2708 2709
M  V30 1855 1 2712 2711
M  V30 1856 1 2711 2713
M  V30 1857 1 2714 2715
M  V30 1858 1 2714 2716
M  V30 1859 1 2719 2717
M  V30 1860 1 2718 2717
M  V30 1861 1 2721 2720
M  V30 1862 1 2720 2722
M  V30 1863 1 2723 2725
M  V30 1864 1 2723 2724
M  V30 1865 1 2728 2726
M  V30 1866 1 2727 2726
M  V30 1867 1 2731 2729
M  V30 1868 1 2729 2730
M  V30 1869 1 2734 2732
M  V30 1870 1 2732 2733
M  V30 1871 1 2735 2736
M  V30 1872 1 2735 2737
M  V30 1873 1 2740 2738
M  V30 1874 1 2739 2738
M  V30 1875 1 2742 2741
M  V30 1876 1 2741 2743
M  V30 1877 1 2744 2745
M  V30 1878 1 2744 2746
M  V30 1879 1 2747 2749
M  V30 1880 1 2747 2748
M  V30 1881 1 2751 2750
M  V30 1882 1 2750 2752
M  V30 1883 1 2755 2753
M  V30 1884 1 2753 2754
M  V30 1885 1 2757 2756
M  V30 1886 1 2758 2756
M  V30 1887 1 2761 2759
M  V30 1888 1 2760 2759
M  V30 1889 1 2764 2762
M  V30 1890 1 2763 2762
M  V30 1891 1 2767 2765
M  V30 1892 1 2765 2766
M  V30 1893 1 2770 2768
M  V30 1894 1 2768 2769
M  V30 1895 1 2772 2771
M  V30 1896 1 2771 2773
M  V30 1897 1 2776 2774
M  V30 1898 1 2774 2775
M  V30 1899 1 2777 2778
M  V30 1900 1 2777 2779
M  V30 1901 1 2782 2780
M  V30 1902 1 2780 2781
M  V30 1903 1 2784 2783
M  V30 1904 1 2785 2783
M  V30 1905 1 2788 2786
M  V30 1906 1 2786 2787
M  V30 1907 1 2789 2790
M  V30 1908 1 2789 2791
M  V30 1909 1 2794 2792
M  V30 1910 1 2792 2793
M  V30 1911 1 2797 2795
M  V30 1912 1 2795 2796
M  V30 1913 1 2800 2798
M  V30 1914 1 2798 2799
M  V30 1915 1 2802 2801
M  V30 1916 1 2801 2803
M  V30 1917 1 2804 2806
M  V30 1918 1 2804 2805
M  V30 1919 1 2808 2807
M  V30 1920 1 2807 2809
M  V30 1921 1 2811 2810
M  V30 1922 1 2810 2812
M  V30 1923 1 2813 2815
M  V30 1924 1 2813 2814
M  V30 1925 1 2818 2816
M  V30 1926 1 2816 2817
M  V30 1927 1 2820 2819
M  V30 1928 1 2819 2821
M  V30 1929 1 2822 2823
M  V30 1930 1 2822 2824
M  V30 1931 1 2826 2825
M  V30 1932 1 2825 2827
M  V30 1933 1 2829 2828
M  V30 1934 1 2828 2830
M  V30 1935 1 2832 2831
M  V30 1936 1 2833 2831
M  V30 1937 1 2835 2834
M  V30 1938 1 2834 2836
M  V30 1939 1 2837 2838
M  V30 1940 1 2837 2839
M  V30 1941 1 2842 2840
M  V30 1942 1 2840 2841
M  V30 1943 1 2845 2843
M  V30 1944 1 2843 2844
M  V30 1945 1 2847 2846
M  V30 1946 1 2846 2848
M  V30 1947 1 2850 2849
M  V30 1948 1 2849 2851
M  V30 1949 1 2852 2853
M  V30 1950 1 2852 2854
M  V30 1951 1 2856 2855
M  V30 1952 1 2855 2857
M  V30 1953 1 2859 2858
M  V30 1954 1 2858 2860
M  V30 1955 1 2862 2861
M  V30 1956 1 2863 2861
M  V30 1957 1 2866 2864
M  V30 1958 1 2864 2865
M  V30 1959 1 2868 2867
M  V30 1960 1 2867 2869
M  V30 1961 1 2870 2872
M  V30 1962 1 2870 2871
M  V30 1963 1 2873 2875
M  V30 1964 1 2873 2874
M  V30 1965 1 2877 2876
M  V30 1966 1 2878 2876
M  V30 1967 1 2880 2879
M  V30 1968 1 2879 2881
M  V30 1969 1 2884 2882
M  V30 1970 1 2882 2883
M  V30 1971 1 2887 2885
M  V30 1972 1 2885 2886
M  V30 1973 1 2889 2888
M  V30 1974 1 2890 2888
M  V30 1975 1 2891 2892
M  V30 1976 1 2891 2893
M  V30 1977 1 2896 2894
M  V30 1978 1 2894 2895
M  V30 1979 1 2898 2897
M  V30 1980 1 2897 2899
M  V30 1981 1 2902 2900
M  V30 1982 1 2900 2901
M  V30 1983 1 2904 2903
M  V30 1984 1 2903 2905
M  V30 1985 1 2908 2906
M  V30 1986 1 2906 2907
M  V30 1987 1 2909 2911
M  V30 1988 1 2909 2910
M  V30 1989 1 2913 2912
M  V30 1990 1 2914 2912
M  V30 1991 1 2917 2915
M  V30 1992 1 2915 2916
M  V30 1993 1 2920 2918
M  V30 1994 1 2918 2919
M  V30 1995 1 2922 2921
M  V30 1996 1 2921 2923
M  V30 1997 1 2926 2924
M  V30 1998 1 2924 2925
M  V30 1999 1 2927 2929
M  V30 2000 1 2927 2928
M  V30 2001 1 2930 2932
M  V30 2002 1 2930 2931
M  V30 2003 1 2935 2933
M  V30 2004 1 2934 2933
M  V30 2005 1 2936 2937
M  V30 2006 1 2936 2938
M  V30 2007 1 2940 2939
M  V30 2008 1 2939 2941
M  V30 2009 1 2944 2942
M  V30 2010 1 2942 2943
M  V30 2011 1 2947 2945
M  V30 2012 1 2945 2946
M  V30 2013 1 2948 2950
M  V30 2014 1 2948 2949
M  V30 2015 1 2952 2951
M  V30 2016 1 2951 2953
M  V30 2017 1 2956 2954
M  V30 2018 1 2955 2954
M  V30 2019 1 2958 2957
M  V30 2020 1 2957 2959
M  V30 2021 1 2962 2960
M  V30 2022 1 2960 2961
M  V30 2023 1 2963 2965
M  V30 2024 1 2963 2964
M  V30 2025 1 2967 2966
M  V30 2026 1 2968 2966
M  V30 2027 1 2971 2969
M  V30 2028 1 2969 2970
M  V30 2029 1 2974 2972
M  V30 2030 1 2972 2973
M  V30 2031 1 2976 2975
M  V30 2032 1 2977 2975
M  V30 2033 1 2978 2979
M  V30 2034 1 2978 2980
M  V30 2035 1 2982 2981
M  V30 2036 1 2981 2983
M  V30 2037 1 2986 2984
M  V30 2038 1 2984 2985
M  V30 2039 1 2989 2987
M  V30 2040 1 2987 2988
M  V30 2041 1 2990 2991
M  V30 2042 1 2990 2992
M  V30 2043 1 2994 2993
M  V30 2044 1 2993 2995
M  V30 2045 1 2998 2996
M  V30 2046 1 2996 2997
M  V30 2047 1 3000 2999
M  V30 2048 1 2999 3001
M  V30 2049 1 3004 3002
M  V30 2050 1 3002 3003
M  V30 2051 1 3006 3005
M  V30 2052 1 3005 3007
M  V30 2053 1 3010 3008
M  V30 2054 1 3008 3009
M  V30 2055 1 3013 3011
M  V30 2056 1 3012 3011
M  V30 2057 1 3016 3014
M  V30 2058 1 3015 3014
M  V30 2059 1 3018 3017
M  V30 2060 1 3017 3019
M  V30 2061 1 3021 3020
M  V30 2062 1 3020 3022
M  V30 2063 1 3023 3024
M  V30 2064 1 3023 3025
M  V30 2065 1 3026 3028
M  V30 2066 1 3026 3027
M  V30 2067 1 3031 3029
M  V30 2068 1 3030 3029
M  V30 2069 1 3032 3033
M  V30 2070 1 3032 3034
M  V30 2071 1 3037 3035
M  V30 2072 1 3035 3036
M  V30 2073 1 3039 3038
M  V30 2074 1 3038 3040
M  V30 2075 1 3043 3041
M  V30 2076 1 3042 3041
M  V30 2077 1 3045 3044
M  V30 2078 1 3046 3044
M  V30 2079 1 3047 3048
M  V30 2080 1 3047 3049
M  V30 2081 1 3052 3050
M  V30 2082 1 3050 3051
M  V30 2083 1 3055 3053
M  V30 2084 1 3054 3053
M  V30 2085 1 3056 3057
M  V30 2086 1 3056 3058
M  V30 2087 1 3059 3061
M  V30 2088 1 3059 3060
M  V30 2089 1 3064 3062
M  V30 2090 1 3062 3063
M  V30 2091 1 3066 3065
M  V30 2092 1 3067 3065
M  V30 2093 1 3070 3068
M  V30 2094 1 3068 3069
M  V30 2095 1 3072 3071
M  V30 2096 1 3071 3073
M  V30 2097 1 3076 3074
M  V30 2098 1 3075 3074
M  V30 2099 1 3078 3077
M  V30 2100 1 3077 3079
M  V30 2101 1 3082 3080
M  V30 2102 1 3080 3081
M  V30 2103 1 3084 3083
M  V30 2104 1 3083 3085
M  V30 2105 1 3087 3086
M  V30 2106 1 3086 3088
M  V30 2107 1 3090 3089
M  V30 2108 1 3089 3091
M  V30 2109 1 3092 3093
M  V30 2110 1 3092 3094
M  V30 2111 1 3096 3095
M  V30 2112 1 3097 3095
M  V30 2113 1 3098 3099
M  V30 2114 1 3098 3100
M  V30 2115 1 3102 3101
M  V30 2116 1 3103 3101
M  V30 2117 1 3105 3104
M  V30 2118 1 3104 3106
M  V30 2119 1 3108 3107
M  V30 2120 1 3109 3107
M  V30 2121 1 3111 3110
M  V30 2122 1 3112 3110
M  V30 2123 1 3113 3114
M  V30 2124 1 3113 3115
M  V30 2125 1 3116 3118
M  V30 2126 1 3116 3117
M  V30 2127 1 3121 3119
M  V30 2128 1 3119 3120
M  V30 2129 1 3122 3123
M  V30 2130 1 3122 3124
M  V30 2131 1 3126 3125
M  V30 2132 1 3125 3127
M  V30 2133 1 3128 3129
M  V30 2134 1 3128 3130
M  V30 2135 1 3131 3133
M  V30 2136 1 3131 3132
M  V30 2137 1 3135 3134
M  V30 2138 1 3134 3136
M  V30 2139 1 3138 3137
M  V30 2140 1 3139 3137
M  V30 2141 1 3141 3140
M  V30 2142 1 3140 3142
M  V30 2143 1 3144 3143
M  V30 2144 1 3145 3143
M  V30 2145 1 3147 3146
M  V30 2146 1 3146 3148
M  V30 2147 1 3149 3151
M  V30 2148 1 3149 3150
M  V30 2149 1 3154 3152
M  V30 2150 1 3152 3153
M  V30 2151 1 3157 3155
M  V30 2152 1 3155 3156
M  V30 2153 1 3159 3158
M  V30 2154 1 3160 3158
M  V30 2155 1 3162 3161
M  V30 2156 1 3161 3163
M  V30 2157 1 3166 3164
M  V30 2158 1 3164 3165
M  V30 2159 1 3167 3169
M  V30 2160 1 3167 3168
M  V30 2161 1 3170 3171
M  V30 2162 1 3170 3172
M  V30 2163 1 3175 3173
M  V30 2164 1 3173 3174
M  V30 2165 1 3177 3176
M  V30 2166 1 3178 3176
M  V30 2167 1 3181 3179
M  V30 2168 1 3180 3179
M  V30 2169 1 3182 3184
M  V30 2170 1 3182 3183
M  V30 2171 1 3186 3185
M  V30 2172 1 3185 3187
M  V30 2173 1 3190 3188
M  V30 2174 1 3188 3189
M  V30 2175 1 3191 3193
M  V30 2176 1 3191 3192
M  V30 2177 1 3196 3194
M  V30 2178 1 3194 3195
M  V30 2179 1 3198 3197
M  V30 2180 1 3197 3199
M  V30 2181 1 3201 3200
M  V30 2182 1 3202 3200
M  V30 2183 1 3204 3203
M  V30 2184 1 3203 3205
M  V30 2185 1 3207 3206
M  V30 2186 1 3206 3208
M  V30 2187 1 3210 3209
M  V30 2188 1 3209 3211
M  V30 2189 1 3214 3212
M  V30 2190 1 3212 3213
M  V30 2191 1 3217 3215
M  V30 2192 1 3216 3215
M  V30 2193 1 3220 3218
M  V30 2194 1 3218 3219
M  V30 2195 1 3223 3221
M  V30 2196 1 3221 3222
M  V30 2197 1 3225 3224
M  V30 2198 1 3224 3226
M  V30 2199 1 3228 3227
M  V30 2200 1 3227 3229
M  V30 2201 1 3231 3230
M  V30 2202 1 3230 3232
M  V30 2203 1 3234 3233
M  V30 2204 1 3233 3235
M  V30 2205 1 3238 3236
M  V30 2206 1 3237 3236
M  V30 2207 1 3241 3239
M  V30 2208 1 3239 3240
M  V30 2209 1 3243 3242
M  V30 2210 1 3242 3244
M  V30 2211 1 3245 3246
M  V30 2212 1 3245 3247
M  V30 2213 1 3248 3249
M  V30 2214 1 3248 3250
M  V30 2215 1 3251 3252
M  V30 2216 1 3251 3253
M  V30 2217 1 3255 3254
M  V30 2218 1 3254 3256
M  V30 2219 1 3258 3257
M  V30 2220 1 3257 3259
M  V30 2221 1 3261 3260
M  V30 2222 1 3260 3262
M  V30 2223 1 3263 3265
M  V30 2224 1 3263 3264
M  V30 2225 1 3268 3266
M  V30 2226 1 3266 3267
M  V30 2227 1 3270 3269
M  V30 2228 1 3269 3271
M  V30 2229 1 3273 3272
M  V30 2230 1 3272 3274
M  V30 2231 1 3276 3275
M  V30 2232 1 3277 3275
M  V30 2233 1 3279 3278
M  V30 2234 1 3278 3280
M  V30 2235 1 3281 3282
M  V30 2236 1 3281 3283
M  V30 2237 1 3286 3284
M  V30 2238 1 3284 3285
M  V30 2239 1 3287 3289
M  V30 2240 1 3287 3288
M  V30 2241 1 3291 3290
M  V30 2242 1 3290 3292
M  V30 2243 1 3294 3293
M  V30 2244 1 3295 3293
M  V30 2245 1 3298 3296
M  V30 2246 1 3297 3296
M  V30 2247 1 3300 3299
M  V30 2248 1 3299 3301
M  V30 2249 1 3303 3302
M  V30 2250 1 3302 3304
M  V30 2251 1 3306 3305
M  V30 2252 1 3305 3307
M  V30 2253 1 3310 3308
M  V30 2254 1 3309 3308
M  V30 2255 1 3312 3311
M  V30 2256 1 3311 3313
M  V30 2257 1 3314 3316
M  V30 2258 1 3314 3315
M  V30 2259 1 3317 3319
M  V30 2260 1 3317 3318
M  V30 2261 1 3322 3320
M  V30 2262 1 3321 3320
M  V30 2263 1 3324 3323
M  V30 2264 1 3323 3325
M  V30 2265 1 3327 3326
M  V30 2266 1 3326 3328
M  V30 2267 1 3331 3329
M  V30 2268 1 3329 3330
M  V30 2269 1 3333 3332
M  V30 2270 1 3332 3334
M  V30 2271 1 3337 3335
M  V30 2272 1 3336 3335
M  V30 2273 1 3338 3340
M  V30 2274 1 3338 3339
M  V30 2275 1 3341 3342
M  V30 2276 1 3341 3343
M  V30 2277 1 3345 3344
M  V30 2278 1 3346 3344
M  V30 2279 1 3348 3347
M  V30 2280 1 3347 3349
M  V30 2281 1 3350 3351
M  V30 2282 1 3350 3352
M  V30 2283 1 3354 3353
M  V30 2284 1 3353 3355
M  V30 2285 1 3358 3356
M  V30 2286 1 3356 3357
M  V30 2287 1 3360 3359
M  V30 2288 1 3359 3361
M  V30 2289 1 3364 3362
M  V30 2290 1 3363 3362
M  V30 2291 1 3366 3365
M  V30 2292 1 3365 3367
M  V30 2293 1 3368 3369
M  V30 2294 1 3368 3370
M  V30 2295 1 3373 3371
M  V30 2296 1 3371 3372
M  V30 2297 1 3375 3374
M  V30 2298 1 3376 3374
M  V30 2299 1 3379 3377
M  V30 2300 1 3377 3378
M  V30 2301 1 3380 3382
M  V30 2302 1 3380 3381
M  V30 2303 1 3385 3383
M  V30 2304 1 3383 3384
M  V30 2305 1 3387 3386
M  V30 2306 1 3386 3388
M  V30 2307 1 3391 3389
M  V30 2308 1 3389 3390
M  V30 2309 1 3393 3392
M  V30 2310 1 3392 3394
M  V30 2311 1 3397 3395
M  V30 2312 1 3395 3396
M  V30 2313 1 3400 3398
M  V30 2314 1 3398 3399
M  V30 2315 1 3403 3401
M  V30 2316 1 3402 3401
M  V30 2317 1 3406 3404
M  V30 2318 1 3405 3404
M  V30 2319 1 3407 3408
M  V30 2320 1 3407 3409
M  V30 2321 1 3411 3410
M  V30 2322 1 3412 3410
M  V30 2323 1 3414 3413
M  V30 2324 1 3413 3415
M  V30 2325 1 3418 3416
M  V30 2326 1 3416 3417
M  V30 2327 1 3420 3419
M  V30 2328 1 3421 3419
M  V30 2329 1 3422 3424
M  V30 2330 1 3422 3423
M  V30 2331 1 3426 3425
M  V30 2332 1 3427 3425
M  V30 2333 1 3430 3428
M  V30 2334 1 3428 3429
M  V30 2335 1 3433 3431
M  V30 2336 1 3431 3432
M  V30 2337 1 3435 3434
M  V30 2338 1 3434 3436
M  V30 2339 1 3439 3437
M  V30 2340 1 3437 3438
M  V30 2341 1 3441 3440
M  V30 2342 1 3442 3440
M  V30 2343 1 3443 3444
M  V30 2344 1 3443 3445
M  V30 2345 1 3447 3446
M  V30 2346 1 3446 3448
M  V30 2347 1 3450 3449
M  V30 2348 1 3451 3449
M  V30 2349 1 3452 3453
M  V30 2350 1 3452 3454
M  V30 2351 1 3456 3455
M  V30 2352 1 3457 3455
M  V30 2353 1 3459 3458
M  V30 2354 1 3458 3460
M  V30 2355 1 3462 3461
M  V30 2356 1 3463 3461
M  V30 2357 1 3465 3464
M  V30 2358 1 3464 3466
M  V30 2359 1 3469 3467
M  V30 2360 1 3467 3468
M  V30 2361 1 3471 3470
M  V30 2362 1 3470 3472
M  V30 2363 1 3475 3473
M  V30 2364 1 3474 3473
M  V30 2365 1 3478 3476
M  V30 2366 1 3476 3477
M  V30 2367 1 3481 3479
M  V30 2368 1 3479 3480
M  V30 2369 1 3483 3482
M  V30 2370 1 3482 3484
M  V30 2371 1 3486 3485
M  V30 2372 1 3485 3487
M  V30 2373 1 3489 3488
M  V30 2374 1 3488 3490
M  V30 2375 1 3493 3491
M  V30 2376 1 3491 3492
M  V30 2377 1 3496 3494
M  V30 2378 1 3494 3495
M  V30 2379 1 3498 3497
M  V30 2380 1 3499 3497
M  V30 2381 1 3501 3500
M  V30 2382 1 3500 3502
M  V30 2383 1 3505 3503
M  V30 2384 1 3504 3503
M  V30 2385 1 3508 3506
M  V30 2386 1 3506 3507
M  V30 2387 1 3509 3510
M  V30 2388 1 3509 3511
M  V30 2389 1 3514 3512
M  V30 2390 1 3513 3512
M  V30 2391 1 3516 3515
M  V30 2392 1 3517 3515
M  V30 2393 1 3519 3518
M  V30 2394 1 3518 3520
M  V30 2395 1 3521 3522
M  V30 2396 1 3521 3523
M  V30 2397 1 3525 3524
M  V30 2398 1 3526 3524
M  V30 2399 1 3529 3527
M  V30 2400 1 3527 3528
M  V30 2401 1 3532 3530
M  V30 2402 1 3530 3531
M  V30 2403 1 3534 3533
M  V30 2404 1 3533 3535
M  V30 2405 1 3538 3536
M  V30 2406 1 3537 3536
M  V30 2407 1 3539 3540
M  V30 2408 1 3539 3541
M  V30 2409 1 3542 3543
M  V30 2410 1 3542 3544
M  V30 2411 1 3545 3546
M  V30 2412 1 3545 3547
M  V30 2413 1 3550 3548
M  V30 2414 1 3549 3548
M  V30 2415 1 3553 3551
M  V30 2416 1 3551 3552
M  V30 2417 1 3554 3556
M  V30 2418 1 3554 3555
M  V30 2419 1 3559 3557
M  V30 2420 1 3557 3558
M  V30 2421 1 3561 3560
M  V30 2422 1 3560 3562
M  V30 2423 1 3564 3563
M  V30 2424 1 3563 3565
M  V30 2425 1 3568 3566
M  V30 2426 1 3566 3567
M  V30 2427 1 3571 3569
M  V30 2428 1 3569 3570
M  V30 2429 1 3573 3572
M  V30 2430 1 3572 3574
M  V30 2431 1 3575 3577
M  V30 2432 1 3575 3576
M  V30 2433 1 3578 3579
M  V30 2434 1 3578 3580
M  V30 2435 1 3583 3581
M  V30 2436 1 3581 3582
M  V30 2437 1 3585 3584
M  V30 2438 1 3586 3584
M  V30 2439 1 3588 3587
M  V30 2440 1 3589 3587
M  V30 2441 1 3591 3590
M  V30 2442 1 3590 3592
M  V30 2443 1 3594 3593
M  V30 2444 1 3593 3595
M  V30 2445 1 3597 3596
M  V30 2446 1 3596 3598
M  V30 2447 1 3599 3601
M  V30 2448 1 3599 3600
M  V30 2449 1 3604 3602
M  V30 2450 1 3602 3603
M  V30 2451 1 3607 3605
M  V30 2452 1 3605 3606
M  V30 2453 1 3609 3608
M  V30 2454 1 3608 3610
M  V30 2455 1 3612 3611
M  V30 2456 1 3611 3613
M  V30 2457 1 3616 3614
M  V30 2458 1 3614 3615
M  V30 2459 1 3618 3617
M  V30 2460 1 3617 3619
M  V30 2461 1 3622 3620
M  V30 2462 1 3620 3621
M  V30 2463 1 3623 3625
M  V30 2464 1 3623 3624
M  V30 2465 1 3626 3628
M  V30 2466 1 3626 3627
M  V30 2467 1 3631 3629
M  V30 2468 1 3629 3630
M  V30 2469 1 3633 3632
M  V30 2470 1 3632 3634
M  V30 2471 1 3636 3635
M  V30 2472 1 3637 3635
M  V30 2473 1 3640 3638
M  V30 2474 1 3638 3639
M  V30 2475 1 3642 3641
M  V30 2476 1 3641 3643
M  V30 2477 1 3645 3644
M  V30 2478 1 3644 3646
M  V30 2479 1 3648 3647
M  V30 2480 1 3647 3649
M  V30 2481 1 3651 3650
M  V30 2482 1 3650 3652
M  V30 2483 1 3654 3653
M  V30 2484 1 3655 3653
M  V30 2485 1 3657 3656
M  V30 2486 1 3658 3656
M  V30 2487 1 3659 3660
M  V30 2488 1 3659 3661
M  V30 2489 1 3662 3664
M  V30 2490 1 3662 3663
M  V30 2491 1 3667 3665
M  V30 2492 1 3665 3666
M  V30 2493 1 3670 3668
M  V30 2494 1 3668 3669
M  V30 2495 1 3673 3671
M  V30 2496 1 3671 3672
M  V30 2497 1 3675 3674
M  V30 2498 1 3674 3676
M  V30 2499 1 3679 3677
M  V30 2500 1 3677 3678
M  V30 2501 1 3682 3680
M  V30 2502 1 3681 3680
M  V30 2503 1 3684 3683
M  V30 2504 1 3685 3683
M  V30 2505 1 3686 3688
M  V30 2506 1 3686 3687
M  V30 2507 1 3690 3689
M  V30 2508 1 3689 3691
M  V30 2509 1 3693 3692
M  V30 2510 1 3692 3694
M  V30 2511 1 3696 3695
M  V30 2512 1 3695 3697
M  V30 2513 1 3700 3698
M  V30 2514 1 3698 3699
M  V30 2515 1 3702 3701
M  V30 2516 1 3701 3703
M  V30 2517 1 3706 3704
M  V30 2518 1 3704 3705
M  V30 2519 1 3708 3707
M  V30 2520 1 3707 3709
M  V30 2521 1 3712 3710
M  V30 2522 1 3711 3710
M  V30 2523 1 3713 3714
M  V30 2524 1 3713 3715
M  V30 2525 1 3717 3716
M  V30 2526 1 3716 3718
M  V30 2527 1 3720 3719
M  V30 2528 1 3719 3721
M  V30 2529 1 3724 3722
M  V30 2530 1 3722 3723
M  V30 2531 1 3725 3726
M  V30 2532 1 3725 3727
M  V30 2533 1 3728 3730
M  V30 2534 1 3728 3729
M  V30 2535 1 3732 3731
M  V30 2536 1 3731 3733
M  V30 2537 1 3734 3735
M  V30 2538 1 3734 3736
M  V30 2539 1 3738 3737
M  V30 2540 1 3737 3739
M  V30 2541 1 3741 3740
M  V30 2542 1 3740 3742
M  V30 END BOND
M  V30 END CTAB
M  END