muliframe_PDB_alphaCD_0002
 OpenBabel08172623063D

  0  0  0     0  0            999 V3000
M  V30 BEGIN CTAB
M  V30 COUNTS 3742 2542 0 0 1
M  V30 BEGIN ATOM
M  V30 1 Mo -2.007 6.433 -5.434 0
M  V30 2 S -0.772 4.479 -5.424 0
M  V30 3 S -4.232 5.938 -5.469 0
M  V30 4 S -1.528 7.607 -3.507 0
M  V30 5 S -1.435 7.475 -7.464 0
M  V30 6 C 0.35 -5.635 -0.648 0
M  V30 7 C 1.41 -6.097 0.347 0
M  V30 8 C 2.011 -4.865 1.062 0
M  V30 9 C 2.413 -3.756 0.031 0
M  V30 10 C 1.217 -3.487 -0.909 0
M  V30 11 C 1.628 -2.466 -1.936 0
M  V30 12 C 4.041 -2.041 0.576 0
M  V30 13 C 4.485 -1.292 1.871 0
M  V30 14 C 5.836 -0.609 1.654 0
M  V30 15 C 5.642 0.337 0.445 0
M  V30 16 C 5.208 -0.433 -0.844 0
M  V30 17 C 6.091 -1.452 -1.555 0
M  V30 18 O 0.839 -4.704 -1.545 0
M  V30 19 O 2.376 -7.001 -0.314 0
M  V30 20 O 1.203 -4.342 2.099 0
M  V30 21 O 2.697 -2.866 -2.764 0
M  V30 22 O 2.822 -2.642 0.858 0
M  V30 23 O 3.996 -1.125 -0.464 0
M  V30 24 O 4.567 -2.183 2.966 0
M  V30 25 O 6.363 0.085 2.791 0
M  V30 26 O -0.751 -5.196 0.046 0
M  V30 27 O 5.445 -1.976 -2.661 0
M  V30 28 C -2.089 -5.243 -0.509 0
M  V30 29 C -3.124 -5.175 0.686 0
M  V30 30 C -3.107 -3.831 1.391 0
M  V30 31 C -3.179 -2.714 0.291 0
M  V30 32 O -2.763 -1.602 0.959 0
M  V30 33 C -3.753 -0.602 1.195 0
M  V30 34 C -3.793 -0.099 2.629 0
M  V30 35 C -4.785 0.98 2.847 0
M  V30 36 C -4.698 2.013 1.723 0
M  V30 37 O -4.699 1.5 0.438 0
M  V30 38 C -3.641 0.577 0.189 0
M  V30 39 C -3.629 0.162 -1.289 0
M  V30 40 O -4.625 -0.734 -1.751 0
M  V30 41 O -3.671 2.902 2.002 0
M  V30 42 C -3.41 4.168 1.351 0
M  V30 43 C -2.211 4.818 2.073 0
M  V30 44 C -1.065 3.847 1.986 0
M  V30 45 C -0.648 3.742 0.515 0
M  V30 46 O 0.394 2.757 0.386 0
M  V30 47 C 1.69 3.185 -0.067 0
M  V30 48 C 2.543 3.689 1.141 0
M  V30 49 C 4.097 3.748 0.839 0
M  V30 50 C 4.597 2.612 0.041 0
M  V30 51 O 3.774 2.392 -1.103 0
M  V30 52 C 2.431 2.071 -0.867 0
M  V30 53 C 1.741 1.765 -2.155 0
M  V30 54 O 1.592 2.932 -3.033 0
M  V30 55 O 4.733 1.434 0.791 0
M  V30 56 O 4.633 4.943 0.269 0
M  V30 57 O 2.235 2.91 2.28 0
M  V30 58 O -1.743 3.271 -0.246 0
M  V30 59 C -2.933 4.068 -0.158 0
M  V30 60 C -2.753 5.417 -0.901 0
M  V30 61 O -2.939 5.329 -2.32 0
M  V30 62 O 0.024 4.387 2.704 0
M  V30 63 O -2.551 5.42 3.331 0
M  V30 64 O -6.089 0.446 2.95 0
M  V30 65 O -2.455 0.296 2.984 0
M  V30 66 O -2.256 -2.834 -0.761 0
M  V30 67 C -2.349 -3.997 -1.489 0
M  V30 68 C -3.693 -4.108 -2.371 0
M  V30 69 O -3.716 -2.95 -3.181 0
M  V30 70 O -4.069 -3.724 2.419 0
M  V30 71 O -2.826 -6.192 1.629 0
M  V30 72 H 0.103 -6.391 -1.394 0
M  V30 73 H 0.913 -6.707 1.102 0
M  V30 74 H 2.991 -5.164 1.433 0
M  V30 75 H 3.192 -4.112 -0.642 0
M  V30 76 H 0.388 -2.975 -0.421 0
M  V30 77 H 1.972 -1.52 -1.516 0
M  V30 78 H 0.804 -2.158 -2.579 0
M  V30 79 H 4.727 -2.869 0.396 0
M  V30 80 H 3.68 -0.583 2.064 0
M  V30 81 H 6.594 -1.312 1.31 0
M  V30 82 H 6.596 0.858 0.357 0
M  V30 83 H 4.866 0.295 -1.579 0
M  V30 84 H 6.48 -2.26 -0.936 0
M  V30 85 H 6.954 -0.925 -1.962 0
M  V30 86 H 2.696 -6.522 -1.082 0
M  V30 87 H 1.614 -3.518 2.373 0
M  V30 88 H 3.533 -2.492 -2.475 0
M  V30 89 H 3.657 -2.399 3.179 0
M  V30 90 H 5.779 0.718 3.215 0
M  V30 91 H 5.873 -2.773 -2.981 0
M  V30 92 H -2.202 -6.177 -1.061 0
M  V30 93 H -4.132 -5.368 0.317 0
M  V30 94 H -2.142 -3.804 1.898 0
M  V30 95 H -4.121 -2.609 -0.249 0
M  V30 96 H -4.635 -1.241 1.165 0
M  V30 97 H -4.022 -0.904 3.327 0
M  V30 98 H -4.496 1.538 3.738 0
M  V30 99 H -5.592 2.634 1.677 0
M  V30 100 H -2.701 1.083 0.408 0
M  V30 101 H -2.652 -0.269 -1.508 0
M  V30 102 H -3.493 1.016 -1.952 0
M  V30 103 H -5.479 -0.376 -1.497 0
M  V30 104 H -4.311 4.735 1.583 0
M  V30 105 H -1.898 5.72 1.548 0
M  V30 106 H -1.34 2.874 2.394 0
M  V30 107 H -0.411 4.715 0.086 0
M  V30 108 H 1.581 3.915 -0.868 0
M  V30 109 H 2.238 4.696 1.425 0
M  V30 110 H 4.584 3.522 1.788 0
M  V30 111 H 5.609 2.67 -0.36 0
M  V30 112 H 2.486 1.167 -0.26 0
M  V30 113 H 0.8 1.228 -2.035 0
M  V30 114 H 2.323 1.041 -2.724 0
M  V30 115 H 2.169 2.849 -3.796 0
M  V30 116 H 4.038 5.344 -0.369 0
M  V30 117 H 1.282 2.946 2.386 0
M  V30 118 H -3.658 3.464 -0.703 0
M  V30 119 H -1.813 5.949 -0.758 0
M  V30 120 H -3.484 6.108 -0.481 0
M  V30 121 H -2.439 6.032 -2.741 0
M  V30 122 H 0.203 5.254 2.333 0
M  V30 123 H -1.73 5.39 3.828 0
M  V30 124 H -6.604 1.144 3.36 0
M  V30 125 H -1.777 -0.279 2.622 0
M  V30 126 H -1.524 -3.914 -2.196 0
M  V30 127 H -4.654 -4.244 -1.874 0
M  V30 128 H -3.608 -4.918 -3.095 0
M  V30 129 H -4.138 -2.226 -2.711 0
M  V30 130 H -4.915 -3.911 2.005 0
M  V30 131 H -1.892 -6.148 1.847 0
M  V30 132 Na -7.076 -3.616 -4.131 0
M  V30 133 Na 0.29 -9.657 -4.504 0
M  V30 134 O -0.742 -5.384 -8.513 0
M  V30 135 H -0.242 -5.681 -9.273 0
M  V30 136 H -0.176 -4.737 -8.092 0
M  V30 137 O 6.083 -11.725 -8.734 0
M  V30 138 H 6.54 -12.297 -9.351 0
M  V30 139 H 6.776 -11.373 -8.175 0
M  V30 140 O 7.345 -9.718 -12.723 0
M  V30 141 H 6.874 -10.305 -13.316 0
M  V30 142 H 7.932 -10.293 -12.233 0
M  V30 143 O 5.969 -4.662 -5.532 0
M  V30 144 H 6.577 -4.464 -4.82 0
M  V30 145 H 5.626 -5.53 -5.32 0
M  V30 146 O -9.505 -11.394 -13.676 0
M  V30 147 H -9.325 -10.668 -14.273 0
M  V30 148 H -8.777 -11.379 -13.054 0
M  V30 149 O -8.067 -2.971 -2.022 0
M  V30 150 H -8.274 -3.831 -1.656 0
M  V30 151 H -7.885 -2.423 -1.26 0
M  V30 152 O 16.8 -5.091 -11.417 0
M  V30 153 H 16.793 -5.991 -11.744 0
M  V30 154 H 17.161 -4.576 -12.138 0
M  V30 155 O 0.721 -1.577 -5.633 0
M  V30 156 H 0.424 -0.89 -5.035 0
M  V30 157 H 1.043 -1.104 -6.4 0
M  V30 158 O 11.031 -0.702 -9.183 0
M  V30 159 H 11.411 -0.673 -10.061 0
M  V30 160 H 11.043 0.208 -8.886 0
M  V30 161 O 11.328 -8.402 -6.015 0
M  V30 162 H 11.237 -9.344 -6.162 0
M  V30 163 H 11.62 -8.055 -6.858 0
M  V30 164 O -3.108 -4.535 -7.102 0
M  V30 165 H -2.608 -3.725 -7.201 0
M  V30 166 H -2.59 -5.194 -7.565 0
M  V30 167 O -0.467 -0.598 -9.28 0
M  V30 168 H 0.315 -0.46 -8.746 0
M  V30 169 H -0.899 0.257 -9.298 0
M  V30 170 O 0.063 -4.453 -4.29 0
M  V30 171 H 0.346 -4.828 -3.456 0
M  V30 172 H 0.618 -3.681 -4.406 0
M  V30 173 O 6.231 -6.624 -7.792 0
M  V30 174 H 6.946 -6.604 -8.428 0
M  V30 175 H 6.589 -6.197 -7.014 0
M  V30 176 O -1.161 -0.509 -3.684 0
M  V30 177 H -1.338 -1.176 -3.021 0
M  V30 178 H -1.493 0.304 -3.302 0
M  V30 179 O 1.202 -4.006 -7.395 0
M  V30 180 H 1.95 -3.873 -7.977 0
M  V30 181 H 1.336 -3.379 -6.684 0
M  V30 182 O -3.68 -1.419 -10.688 0
M  V30 183 H -2.844 -1.876 -10.6 0
M  V30 184 H -3.644 -0.723 -10.032 0
M  V30 185 O 3.218 2.86 -10.029 0
M  V30 186 H 3.369 3.178 -10.919 0
M  V30 187 H 2.325 2.514 -10.046 0
M  V30 188 O 6.751 14.175 -14.392 0
M  V30 189 H 6.229 14.23 -15.193 0
M  V30 190 H 6.107 14.051 -13.695 0
M  V30 191 O 4.139 8.572 -7.133 0
M  V30 192 H 3.637 8.123 -6.454 0
M  V30 193 H 5.053 8.45 -6.877 0
M  V30 194 O -11.15 6.346 -11.572 0
M  V30 195 H -11.651 6.987 -11.069 0
M  V30 196 H -10.665 6.868 -12.211 0
M  V30 197 O -1.293 -2.87 -10.767 0
M  V30 198 H -0.851 -2.212 -10.23 0
M  V30 199 H -0.627 -3.16 -11.389 0
M  V30 200 O -0.312 11.244 -11.137 0
M  V30 201 H -0.167 12.103 -10.741 0
M  V30 202 H -0.366 10.643 -10.394 0
M  V30 203 O 7.183 7.628 -0.789 0
M  V30 204 H 6.806 7.019 -0.155 0
M  V30 205 H 8.038 7.856 -0.424 0
M  V30 206 O 3.234 2.977 -5.236 0
M  V30 207 H 3.428 2.074 -5.49 0
M  V30 208 H 2.976 3.405 -6.052 0
M  V30 209 O 0.07 9.754 -9.02 0
M  V30 210 H -0.639 9.267 -8.601 0
M  V30 211 H 0.47 10.254 -8.309 0
M  V30 212 O -4.519 7.384 -8.293 0
M  V30 213 H -3.759 7.307 -7.716 0
M  V30 214 H -4.43 6.654 -8.906 0
M  V30 215 O -5.467 14.959 -10.054 0
M  V30 216 H -5.214 14.813 -9.142 0
M  V30 217 H -4.698 14.697 -10.561 0
M  V30 218 O 11.687 13.69 -4.708 0
M  V30 219 H 11.307 13.905 -3.857 0
M  V30 220 H 11.005 13.917 -5.34 0
M  V30 221 O 4.452 12.166 2.748 0
M  V30 222 H 4.975 12.371 3.524 0
M  V30 223 H 3.83 12.89 2.68 0
M  V30 224 O -1.112 -7.769 -3.038 0
M  V30 225 H -1.331 -7.066 -3.65 0
M  V30 226 H -1.924 -7.931 -2.558 0
M  V30 227 O 4.433 -11.039 -5.637 0
M  V30 228 H 4.374 -11.755 -6.269 0
M  V30 229 H 4.744 -10.292 -6.149 0
M  V30 230 O -2.147 -5.932 -5.064 0
M  V30 231 H -1.365 -5.406 -4.895 0
M  V30 232 H -2.624 -5.443 -5.735 0
M  V30 233 O 8.256 -7.158 0.075 0
M  V30 234 H 8.304 -8.106 0.201 0
M  V30 235 H 9.032 -6.817 0.518 0
M  V30 236 O 16.017 -11.311 -14.616 0
M  V30 237 H 15.126 -11.038 -14.394 0
M  V30 238 H 15.901 -12.008 -15.261 0
M  V30 239 O 15.39 -0.681 -10.69 0
M  V30 240 H 15.983 0.067 -10.756 0
M  V30 241 H 15.868 -1.32 -10.162 0
M  V30 242 O 3.485 -5.768 -2.807 0
M  V30 243 H 3.547 -4.944 -3.29 0
M  V30 244 H 3.859 -6.422 -3.399 0
M  V30 245 O 9.492 16.802 10.334 0
M  V30 246 H 9.895 17.666 10.421 0
M  V30 247 H 9.111 16.628 11.195 0
M  V30 248 O 10.413 -8.348 -3.311 0
M  V30 249 H 10.238 -9.11 -2.759 0
M  V30 250 H 10.779 -8.714 -4.117 0
M  V30 251 O 7.84 -10.057 0.547 0
M  V30 252 H 7.867 -9.851 1.481 0
M  V30 253 H 7.578 -10.977 0.512 0
M  V30 254 O -5.072 0.089 -8.15 0
M  V30 255 H -5.284 0.911 -7.708 0
M  V30 256 H -4.667 -0.451 -7.471 0
M  V30 257 O 3.027 -3.117 -9.079 0
M  V30 258 H 3.971 -3.26 -9.004 0
M  V30 259 H 2.896 -2.854 -9.99 0
M  V30 260 O 8.504 3.166 5.178 0
M  V30 261 H 8.803 3.665 5.938 0
M  V30 262 H 8.073 2.397 5.55 0
M  V30 263 O -10.047 3.285 -3.517 0
M  V30 264 H -9.163 3.158 -3.861 0
M  V30 265 H -10.397 2.399 -3.422 0
M  V30 266 O -10.072 8.377 -4.516 0
M  V30 267 H -9.657 8.959 -5.153 0
M  V30 268 H -9.562 7.568 -4.563 0
M  V30 269 O 14.264 4.048 3.068 0
M  V30 270 H 14.112 3.418 3.772 0
M  V30 271 H 14.834 4.711 3.458 0
M  V30 272 O -4.409 2.429 -6.324 0
M  V30 273 H -5.21 2.882 -6.585 0
M  V30 274 H -4.166 2.832 -5.491 0
M  V30 275 O 5.862 4.581 -3.55 0
M  V30 276 H 6.124 5.502 -3.548 0
M  V30 277 H 4.974 4.583 -3.194 0
M  V30 278 O -6.695 -1.328 -4.629 0
M  V30 279 H -7.237 -0.668 -5.061 0
M  V30 280 H -5.802 -0.991 -4.7 0
M  V30 281 O 3.059 6.078 -1.549 0
M  V30 282 H 3.132 6.994 -1.817 0
M  V30 283 H 2.14 5.856 -1.701 0
M  V30 284 O 1.809 12.774 -0.75 0
M  V30 285 H 1.964 11.949 -0.289 0
M  V30 286 H 0.857 12.873 -0.752 0
M  V30 287 O 14.629 14.939 -4.847 0
M  V30 288 H 14.744 15.759 -4.367 0
M  V30 289 H 14.793 14.255 -4.197 0
M  V30 290 O -3.729 -8.508 -4.639 0
M  V30 291 H -3.328 -7.818 -5.168 0
M  V30 292 H -4.091 -8.049 -3.881 0
M  V30 293 O 6.324 0.867 -4.971 0
M  V30 294 H 6.498 1.125 -4.066 0
M  V30 295 H 5.437 0.506 -4.952 0
M  V30 296 O 7.793 -4.422 0.79 0
M  V30 297 H 8.134 -4.04 -0.02 0
M  V30 298 H 7.778 -5.364 0.623 0
M  V30 299 O 11.157 -5.277 9.497 0
M  V30 300 H 10.348 -4.892 9.834 0
M  V30 301 H 11.365 -4.757 8.721 0
M  V30 302 O -11.527 5.514 -2.851 0
M  V30 303 H -11.789 5.839 -3.713 0
M  V30 304 H -11.093 4.68 -3.031 0
M  V30 305 O -1.913 1.531 -9.079 0
M  V30 306 H -2.77 1.818 -9.394 0
M  V30 307 H -1.964 1.623 -8.127 0
M  V30 308 O -10.164 3.864 -10.49 0
M  V30 309 H -9.242 3.652 -10.341 0
M  V30 310 H -10.146 4.702 -10.952 0
M  V30 311 O 6.078 -6 -1.301 0
M  V30 312 H 6.809 -6.411 -0.838 0
M  V30 313 H 5.393 -6.668 -1.309 0
M  V30 314 O -7.343 2.949 -4.341 0
M  V30 315 H -6.733 2.357 -3.901 0
M  V30 316 H -7.239 2.752 -5.272 0
M  V30 317 O -1.583 2.237 -2.712 0
M  V30 318 H -0.829 2.715 -3.056 0
M  V30 319 H -1.689 2.565 -1.819 0
M  V30 320 O -12.934 9.439 -11.791 0
M  V30 321 H -13.654 9.325 -11.171 0
M  V30 322 H -13.363 9.561 -12.638 0
M  V30 323 O -11.165 5.685 1.09 0
M  V30 324 H -11.365 4.818 1.444 0
M  V30 325 H -10.732 5.509 0.255 0
M  V30 326 O -12.075 3.353 -7.42 0
M  V30 327 H -12.084 4.289 -7.218 0
M  V30 328 H -12.988 3.14 -7.612 0
M  V30 329 O -0.742 12.996 -0.067 0
M  V30 330 H -0.401 12.575 0.723 0
M  V30 331 H -1.029 13.86 0.227 0
M  V30 332 O 9.742 9.935 4.842 0
M  V30 333 H 9.999 9.049 4.589 0
M  V30 334 H 10.275 10.507 4.289 0
M  V30 335 O 0.861 12.21 -6.781 0
M  V30 336 H 1.765 11.899 -6.827 0
M  V30 337 H 0.877 13.06 -7.221 0
M  V30 338 O -1.339 -10.938 5.031 0
M  V30 339 H -1.076 -10.032 5.193 0
M  V30 340 H -1.596 -10.952 4.109 0
M  V30 341 O 2.761 -4.457 5.294 0
M  V30 342 H 1.992 -4.365 5.857 0
M  V30 343 H 3.041 -5.364 5.417 0
M  V30 344 O 6.061 -14.425 3.409 0
M  V30 345 H 6.45 -15.164 3.876 0
M  V30 346 H 6.202 -13.675 3.986 0
M  V30 347 O -6.727 -7.637 4.761 0
M  V30 348 H -7.638 -7.927 4.812 0
M  V30 349 H -6.647 -6.976 5.448 0
M  V30 350 O 8.941 4.427 -4.549 0
M  V30 351 H 9.495 3.791 -4.097 0
M  V30 352 H 8.054 4.228 -4.249 0
M  V30 353 O -15.878 -6.514 -2.282 0
M  V30 354 H -16.728 -6.954 -2.294 0
M  V30 355 H -15.923 -5.926 -1.528 0
M  V30 356 O -8.14 6.146 -4.777 0
M  V30 357 H -8.191 6.341 -5.713 0
M  V30 358 H -7.78 5.261 -4.736 0
M  V30 359 O -6.623 16.162 11.931 0
M  V30 360 H -7.302 15.488 11.89 0
M  V30 361 H -7.105 16.989 11.936 0
M  V30 362 O -2.44 5.276 -8.91 0
M  V30 363 H -2.099 6.058 -8.474 0
M  V30 364 H -2.544 4.636 -8.206 0
M  V30 365 O -1.557 0.132 9.435 0
M  V30 366 H -1.433 0.389 8.522 0
M  V30 367 H -0.681 -0.106 9.739 0
M  V30 368 O -17.2 5.134 0.693 0
M  V30 369 H -16.505 4.557 1.011 0
M  V30 370 H -17.093 5.138 -0.258 0
M  V30 371 O -7.919 5.387 2.724 0
M  V30 372 H -7.355 5.21 1.972 0
M  V30 373 H -8.69 4.838 2.581 0
M  V30 374 O 9.166 -0.477 2.421 0
M  V30 375 H 9.725 0.297 2.345 0
M  V30 376 H 8.458 -0.204 3.005 0
M  V30 377 O 12.169 -3.817 -0.733 0
M  V30 378 H 12.1 -4.033 0.197 0
M  V30 379 H 12.812 -3.108 -0.767 0
M  V30 380 O -7.578 6.229 5.434 0
M  V30 381 H -7.657 5.575 4.739 0
M  V30 382 H -6.895 6.825 5.126 0
M  V30 383 O 1.736 1.687 14.338 0
M  V30 384 H 1.859 1.266 15.188 0
M  V30 385 H 1.074 1.152 13.899 0
M  V30 386 O -3.705 8.152 2.643 0
M  V30 387 H -3.416 8.467 1.786 0
M  V30 388 H -2.93 7.733 3.017 0
M  V30 389 O -7.064 10.124 13.719 0
M  V30 390 H -6.141 9.875 13.673 0
M  V30 391 H -7.515 9.471 13.184 0
M  V30 392 O 10.818 10.624 9.335 0
M  V30 393 H 10.434 10.893 10.169 0
M  V30 394 H 11.727 10.41 9.547 0
M  V30 395 O -6.199 -11.535 -0.61 0
M  V30 396 H -6.643 -11.504 0.238 0
M  V30 397 H -5.368 -11.084 -0.462 0
M  V30 398 O -0.428 -10.965 8.048 0
M  V30 399 H -0.022 -11.495 8.734 0
M  V30 400 H -0.131 -11.364 7.23 0
M  V30 401 O 16.578 -16.322 8.44 0
M  V30 402 H 16.545 -17.004 7.769 0
M  V30 403 H 16.131 -15.574 8.044 0
M  V30 404 O 6.283 -15.409 -3.614 0
M  V30 405 H 6.168 -14.473 -3.449 0
M  V30 406 H 7.195 -15.493 -3.892 0
M  V30 407 O 0.123 -5.525 6.329 0
M  V30 408 H 0.339 -6.447 6.469 0
M  V30 409 H -0.621 -5.362 6.909 0
M  V30 410 O 11.965 4.9 1.799 0
M  V30 411 H 12.243 5.648 1.27 0
M  V30 412 H 12.749 4.647 2.287 0
M  V30 413 O -9.997 -13.33 13.857 0
M  V30 414 H -9.709 -14.044 14.425 0
M  V30 415 H -10.35 -13.767 13.082 0
M  V30 416 O 6.176 -7.948 4.371 0
M  V30 417 H 7.062 -7.628 4.541 0
M  V30 418 H 5.703 -7.183 4.044 0
M  V30 419 O 10.201 -12.809 6.218 0
M  V30 420 H 9.827 -11.943 6.38 0
M  V30 421 H 10.428 -13.138 7.088 0
M  V30 422 O 11.279 1.427 -0.548 0
M  V30 423 H 12.191 1.713 -0.58 0
M  V30 424 H 11.024 1.537 0.368 0
M  V30 425 O -13.573 -2.42 -3.436 0
M  V30 426 H -14.392 -2.833 -3.71 0
M  V30 427 H -13.209 -3.018 -2.783 0
M  V30 428 O -4.776 4.64 5.177 0
M  V30 429 H -4.562 3.774 5.523 0
M  V30 430 H -4.084 4.824 4.542 0
M  V30 431 O 12.97 -2.744 -4.141 0
M  V30 432 H 12.556 -3.606 -4.173 0
M  V30 433 H 13.431 -2.729 -3.303 0
M  V30 434 O 1.932 5.45 10.059 0
M  V30 435 H 2.827 5.702 10.289 0
M  V30 436 H 1.494 5.326 10.901 0
M  V30 437 O -1.74 1.868 5.285 0
M  V30 438 H -1.899 1.318 4.518 0
M  V30 439 H -2.603 2.209 5.519 0
M  V30 440 O -1.759 -5.295 -15.692 0
M  V30 441 H -1.42 -4.471 -15.342 0
M  V30 442 H -2.649 -5.087 -15.976 0
M  V30 443 O 1.954 -2.249 3.846 0
M  V30 444 H 2.523 -2.918 4.227 0
M  V30 445 H 2.041 -1.497 4.432 0
M  V30 446 O 12.892 6.566 -0.404 0
M  V30 447 H 12.83 5.767 -0.928 0
M  V30 448 H 12.681 7.271 -1.017 0
M  V30 449 O -6.036 6.53 10.826 0
M  V30 450 H -5.507 7.323 10.908 0
M  V30 451 H -6.238 6.471 9.892 0
M  V30 452 O 3.27 -2.448 7.485 0
M  V30 453 H 3.441 -2.753 6.594 0
M  V30 454 H 3.026 -3.239 7.966 0
M  V30 455 O -14.858 6.13 4.499 0
M  V30 456 H -15.115 6.914 4.984 0
M  V30 457 H -13.984 6.331 4.164 0
M  V30 458 O -8.19 14.74 2.168 0
M  V30 459 H -7.855 14.131 1.51 0
M  V30 460 H -9.06 14.982 1.85 0
M  V30 461 O 0.639 2.293 9.735 0
M  V30 462 H 0.965 3.169 9.941 0
M  V30 463 H 0.739 2.216 8.786 0
M  V30 464 O 10.15 7.432 2.757 0
M  V30 465 H 10.216 6.855 3.518 0
M  V30 466 H 11.057 7.607 2.508 0
M  V30 467 O 10.07 0.444 7.14 0
M  V30 468 H 9.21 0.828 6.968 0
M  V30 469 H 9.957 -0.489 6.957 0
M  V30 470 O 8.74 -15.347 5.229 0
M  V30 471 H 9.262 -14.642 5.614 0
M  V30 472 H 9 -15.363 4.308 0
M  V30 473 O -3.867 -2.97 8.373 0
M  V30 474 H -4.189 -2.096 8.592 0
M  V30 475 H -3.33 -2.84 7.592 0
M  V30 476 O -8.887 -5.394 -0.77 0
M  V30 477 H -9.166 -5.841 0.029 0
M  V30 478 H -9.604 -5.538 -1.388 0
M  V30 479 O 8.722 -7.188 5.278 0
M  V30 480 H 9.14 -6.347 5.461 0
M  V30 481 H 9.359 -7.661 4.742 0
M  V30 482 O -0 -9.598 12.903 0
M  V30 483 H -0.564 -10.324 12.636 0
M  V30 484 H 0.123 -9.724 13.844 0
M  V30 485 O 12.569 -11.86 0.7 0
M  V30 486 H 12.972 -11.316 0.024 0
M  V30 487 H 13.162 -12.605 0.794 0
M  V30 488 O -6.978 9.556 8.641 0
M  V30 489 H -7.27 9.287 7.77 0
M  V30 490 H -6.865 8.735 9.12 0
M  V30 491 O -6.777 -3.169 -16.088 0
M  V30 492 H -7.546 -3.715 -15.929 0
M  V30 493 H -6.466 -2.932 -15.214 0
M  V30 494 O 3.956 -12.999 2.239 0
M  V30 495 H 4.404 -13.796 2.524 0
M  V30 496 H 4.376 -12.297 2.736 0
M  V30 497 O 2.992 -11.723 8.339 0
M  V30 498 H 2.432 -11.813 7.568 0
M  V30 499 H 2.388 -11.774 9.08 0
M  V30 500 O 1.268 -7.492 10.147 0
M  V30 501 H 0.37 -7.723 9.912 0
M  V30 502 H 1.315 -7.639 11.091 0
M  V30 503 O -14.383 3.096 -15.906 0
M  V30 504 H -13.622 3.014 -16.48 0
M  V30 505 H -14.029 2.996 -15.022 0
M  V30 506 O -9.63 4.529 8.66 0
M  V30 507 H -9.045 3.938 9.135 0
M  V30 508 H -10.152 3.952 8.103 0
M  V30 509 O -7.9 -2.471 4.376 0
M  V30 510 H -7.216 -2.157 3.785 0
M  V30 511 H -7.471 -2.534 5.229 0
M  V30 512 O -3.324 -4.427 5.062 0
M  V30 513 H -2.791 -3.747 5.475 0
M  V30 514 H -3.37 -4.17 4.141 0
M  V30 515 O 12.928 -8.823 -1.072 0
M  V30 516 H 12.322 -9.381 -1.558 0
M  V30 517 H 12.406 -8.059 -0.825 0
M  V30 518 O 1.979 -7.231 13.045 0
M  V30 519 H 1.42 -6.638 13.548 0
M  V30 520 H 2.329 -7.839 13.696 0
M  V30 521 O -1.205 5.439 8.778 0
M  V30 522 H -0.977 6.119 9.412 0
M  V30 523 H -0.373 5.207 8.366 0
M  V30 524 O 2.274 10.431 0.562 0
M  V30 525 H 3.146 10.259 0.919 0
M  V30 526 H 2.047 9.632 0.086 0
M  V30 527 O 3.807 4.821 6.704 0
M  V30 528 H 4.492 4.655 6.057 0
M  V30 529 H 4.097 4.353 7.487 0
M  V30 530 O -0.293 0 -0.007 0
M  V30 531 H -0.375 -0.55 0.772 0
M  V30 532 H -0.239 0.893 0.334 0
M  V30 533 O 4.458 0.585 -16.323 0
M  V30 534 H 3.639 0.09 -16.339 0
M  V30 535 H 4.836 0.398 -15.464 0
M  V30 536 O -13.972 9.058 5.151 0
M  V30 537 H -14.274 9.515 4.366 0
M  V30 538 H -13.124 9.456 5.349 0
M  V30 539 O -3.714 9.807 -16.237 0
M  V30 540 H -3.597 8.967 -16.683 0
M  V30 541 H -3.353 10.453 -16.844 0
M  V30 542 O -7.185 -2.203 6.91 0
M  V30 543 H -7.711 -2.712 7.528 0
M  V30 544 H -6.405 -1.955 7.406 0
M  V30 545 O 5.247 -0.67 9.194 0
M  V30 546 H 4.69 -1.019 8.499 0
M  V30 547 H 4.681 -0.065 9.674 0
M  V30 548 O 6.149 6.445 7.608 0
M  V30 549 H 5.389 6.384 8.186 0
M  V30 550 H 5.778 6.574 6.735 0
M  V30 551 O -14.091 12.808 -4.683 0
M  V30 552 H -13.627 13.162 -5.442 0
M  V30 553 H -13.424 12.318 -4.202 0
M  V30 554 O -5.624 -2.926 -13.426 0
M  V30 555 H -5.084 -2.136 -13.444 0
M  V30 556 H -6.123 -2.857 -12.611 0
M  V30 557 O -1.05 15.255 15.781 0
M  V30 558 H -0.799 15.989 15.221 0
M  V30 559 H -1.831 14.891 15.365 0
M  V30 560 O 9.573 6.601 11.039 0
M  V30 561 H 9.122 5.77 10.889 0
M  V30 562 H 8.903 7.268 10.891 0
M  V30 563 O 7.341 0.734 6.603 0
M  V30 564 H 7.485 -0.024 6.035 0
M  V30 565 H 6.429 0.655 6.881 0
M  V30 566 O 6.588 1.385 12.903 0
M  V30 567 H 6.929 0.522 13.135 0
M  V30 568 H 6.439 1.818 13.744 0
M  V30 569 O -9.272 -7.895 5.008 0
M  V30 570 H -9.625 -7.698 5.876 0
M  V30 571 H -9.509 -7.136 4.475 0
M  V30 572 O -5.618 -5.901 -13.711 0
M  V30 573 H -5.6 -4.973 -13.476 0
M  V30 574 H -4.997 -5.977 -14.435 0
M  V30 575 O -9.292 -4.754 -15.841 0
M  V30 576 H -9.559 -4.135 -15.161 0
M  V30 577 H -9.87 -5.507 -15.721 0
M  V30 578 O 0.575 -1.949 8.416 0
M  V30 579 H 1.456 -1.885 8.046 0
M  V30 580 H 0.06 -1.313 7.92 0
M  V30 581 O 6.776 -1.675 4.958 0
M  V30 582 H 7.348 -2.155 4.359 0
M  V30 583 H 6.078 -1.333 4.401 0
M  V30 584 O 2.715 -5.22 8.685 0
M  V30 585 H 2.008 -5.827 8.905 0
M  V30 586 H 3.516 -5.73 8.807 0
M  V30 587 O -5.182 2.188 9.203 0
M  V30 588 H -6.111 2.055 9.39 0
M  V30 589 H -5.034 3.119 9.369 0
M  V30 590 O -7.537 -4.332 12.555 0
M  V30 591 H -8.216 -3.785 12.951 0
M  V30 592 H -7.393 -5.032 13.191 0
M  V30 593 O -0.364 -6.125 3.404 0
M  V30 594 H 0.121 -5.515 2.848 0
M  V30 595 H -0.264 -5.774 4.289 0
M  V30 596 O -3.024 -8.687 -13.296 0
M  V30 597 H -2.28 -8.211 -13.665 0
M  V30 598 H -3.304 -8.156 -12.551 0
M  V30 599 O -0.212 0.195 6.656 0
M  V30 600 H -0.791 0.614 6.019 0
M  V30 601 H 0.575 0.739 6.658 0
M  V30 602 O 5.218 -10.145 10.975 0
M  V30 603 H 6.106 -9.869 10.749 0
M  V30 604 H 4.721 -9.33 11.037 0
M  V30 605 O -7.033 -0.922 15.795 0
M  V30 606 H -7.864 -0.606 16.151 0
M  V30 607 H -6.905 -1.776 16.207 0
M  V30 608 O -1.57 2.273 11.412 0
M  V30 609 H -1.967 3.142 11.353 0
M  V30 610 H -0.89 2.274 10.739 0
M  V30 611 O -1.45 -6.34 8.512 0
M  V30 612 H -1.833 -6.913 9.176 0
M  V30 613 H -1.149 -5.574 9 0
M  V30 614 O 5.344 7.46 10.982 0
M  V30 615 H 4.613 7.938 10.59 0
M  V30 616 H 5.125 7.405 11.912 0
M  V30 617 O 2.71 -7.024 6.129 0
M  V30 618 H 2.522 -7.786 5.581 0
M  V30 619 H 2.547 -7.324 7.023 0
M  V30 620 O 8.229 -4.143 10.823 0
M  V30 621 H 8.183 -3.627 10.018 0
M  V30 622 H 8.861 -3.678 11.37 0
M  V30 623 O -3.13 4.706 10.738 0
M  V30 624 H -2.281 4.929 10.357 0
M  V30 625 H -3.733 4.702 9.995 0
M  V30 626 O 0.726 3.581 5.335 0
M  V30 627 H 0.65 4.054 4.506 0
M  V30 628 H -0.175 3.352 5.564 0
M  V30 629 O -0.43 -1.443 2.473 0
M  V30 630 H 0.266 -1.818 3.013 0
M  V30 631 H -0.986 -2.188 2.248 0
M  V30 632 O 5.191 7.053 5.077 0
M  V30 633 H 5.57 7.726 4.511 0
M  V30 634 H 4.248 7.112 4.919 0
M  V30 635 O 9.829 -2.243 6.916 0
M  V30 636 H 9.971 -2.563 7.807 0
M  V30 637 H 9.53 -3.012 6.43 0
M  V30 638 O 4.391 1.804 3.923 0
M  V30 639 H 3.762 2.152 3.291 0
M  V30 640 H 4.814 2.579 4.293 0
M  V30 641 O -11.152 5.719 -15.564 0
M  V30 642 H -12.089 5.749 -15.367 0
M  V30 643 H -10.739 6.179 -14.833 0
M  V30 644 O 3.166 -0.386 5.509 0
M  V30 645 H 3.361 0.401 5.001 0
M  V30 646 H 3.061 -0.073 6.407 0
M  V30 647 O -0.644 7.533 11.244 0
M  V30 648 H 0.255 7.533 11.573 0
M  V30 649 H -1.129 6.995 11.87 0
M  V30 650 O 7.751 -4.797 7.473 0
M  V30 651 H 7.516 -3.898 7.701 0
M  V30 652 H 8.037 -4.746 6.561 0
M  V30 653 O 4.334 4.665 11.23 0
M  V30 654 H 4.776 5.489 11.434 0
M  V30 655 H 4.069 4.318 12.082 0
M  V30 656 O 9.737 2.952 10.343 0
M  V30 657 H 8.812 2.996 10.582 0
M  V30 658 H 10.201 3.262 11.121 0
M  V30 659 O -10.473 6.914 4.793 0
M  V30 660 H -10.827 6.968 5.681 0
M  V30 661 H -9.686 6.376 4.88 0
M  V30 662 O 1.877 6.456 7.358 0
M  V30 663 H 2.453 5.917 6.816 0
M  V30 664 H 1.98 6.104 8.242 0
M  V30 665 O 3.034 11.287 9.858 0
M  V30 666 H 3.031 11.333 10.814 0
M  V30 667 H 3.644 11.973 9.586 0
M  V30 668 O -7.549 6.686 8.443 0
M  V30 669 H -8.378 6.286 8.706 0
M  V30 670 H -7.598 6.736 7.489 0
M  V30 671 O -15.178 -0.964 5.39 0
M  V30 672 H -15.839 -1.07 6.073 0
M  V30 673 H -15.055 -0.018 5.318 0
M  V30 674 O 11.148 4.07 12.478 0
M  V30 675 H 11.26 5.018 12.543 0
M  V30 676 H 11.993 3.709 12.748 0
M  V30 677 O 0.941 -10.895 15.446 0
M  V30 678 H 0.896 -10.07 15.929 0
M  V30 679 H 0.614 -11.551 16.062 0
M  V30 680 O 10.359 17.347 -14.448 0
M  V30 681 H 9.957 16.489 -14.584 0
M  V30 682 H 11.29 17.159 -14.328 0
M  V30 683 O -1.406 -8.114 10.752 0
M  V30 684 H -1.677 -8.837 10.186 0
M  V30 685 H -1.339 -8.503 11.624 0
M  V30 686 O -2.708 3.06 -13.27 0
M  V30 687 H -3.311 3.584 -13.798 0
M  V30 688 H -1.837 3.356 -13.534 0
M  V30 689 O -0.142 -12.326 -15.804 0
M  V30 690 H -0.671 -11.742 -15.259 0
M  V30 691 H -0.703 -13.087 -15.954 0
M  V30 692 O -2.92 -10.107 9.418 0
M  V30 693 H -3.388 -9.957 8.597 0
M  V30 694 H -2.112 -10.549 9.156 0
M  V30 695 O 7.372 -6.261 12.138 0
M  V30 696 H 6.417 -6.258 12.195 0
M  V30 697 H 7.581 -5.517 11.575 0
M  V30 698 O 6.457 -10.05 6.196 0
M  V30 699 H 5.879 -10.053 6.959 0
M  V30 700 H 6.149 -9.315 5.666 0
M  V30 701 O 0.139 -1.716 11.589 0
M  V30 702 H 0.229 -2.669 11.584 0
M  V30 703 H 0.472 -1.439 10.735 0
M  V30 704 O -2.919 -1.825 12.071 0
M  V30 705 H -3.075 -2.749 11.873 0
M  V30 706 H -2.065 -1.638 11.681 0
M  V30 707 O 1.913 1.879 7.097 0
M  V30 708 H 1.814 2.595 6.469 0
M  V30 709 H 2.486 2.233 7.777 0
M  V30 710 O -5.008 -0.565 8.515 0
M  V30 711 H -5.733 -0.133 8.064 0
M  V30 712 H -4.632 0.116 9.072 0
M  V30 713 O -1.607 -2.528 6.175 0
M  V30 714 H -1.307 -1.644 5.964 0
M  V30 715 H -0.906 -2.898 6.711 0
M  V30 716 O 10.472 -2.864 15.164 0
M  V30 717 H 9.974 -2.258 15.713 0
M  V30 718 H 11.3 -2.413 14.998 0
M  V30 719 O -10.183 0.198 -11.99 0
M  V30 720 H -10.367 0.704 -11.199 0
M  V30 721 H -11.036 0.088 -12.409 0
M  V30 722 O -6.48 -2.416 -10.875 0
M  V30 723 H -7.251 -1.98 -10.51 0
M  V30 724 H -5.752 -1.831 -10.666 0
M  V30 725 O 4.101 -7.664 10.702 0
M  V30 726 H 3.157 -7.673 10.544 0
M  V30 727 H 4.233 -6.947 11.322 0
M  V30 728 O 0.311 -4.853 12.053 0
M  V30 729 H -0.335 -4.937 11.352 0
M  V30 730 H 0.869 -5.625 11.958 0
M  V30 731 O 13.414 2.593 -16.236 0
M  V30 732 H 13.326 3.539 -16.354 0
M  V30 733 H 13.021 2.215 -17.023 0
M  V30 734 O -0.377 0.687 13.209 0
M  V30 735 H -0.192 -0.1 12.695 0
M  V30 736 H -0.908 1.233 12.628 0
M  V30 737 O 3.162 3.272 -14.975 0
M  V30 738 H 3.879 2.907 -15.494 0
M  V30 739 H 2.598 3.705 -15.616 0
M  V30 740 O 4.719 0.542 -10.75 0
M  V30 741 H 4.078 1.226 -10.56 0
M  V30 742 H 4.205 -0.265 -10.789 0
M  V30 743 O 3.783 -5.099 15.205 0
M  V30 744 H 3.474 -5.608 15.955 0
M  V30 745 H 4.657 -4.802 15.46 0
M  V30 746 O -8.025 2.665 9.82 0
M  V30 747 H -8.869 2.227 9.93 0
M  V30 748 H -7.751 2.883 10.711 0
M  V30 749 O 5.865 -3.48 -12.747 0
M  V30 750 H 6.171 -4.33 -13.062 0
M  V30 751 H 6.647 -2.928 -12.748 0
M  V30 752 O 1.034 8.548 -14.465 0
M  V30 753 H 1.549 8.987 -15.143 0
M  V30 754 H 0.341 9.172 -14.25 0
M  V30 755 O 4.149 3.833 13.881 0
M  V30 756 H 3.493 4.209 14.469 0
M  V30 757 H 4.669 3.255 14.44 0
M  V30 758 O 11.505 6.804 8.826 0
M  V30 759 H 11.177 6.909 9.72 0
M  V30 760 H 12.019 5.997 8.853 0
M  V30 761 O 10.476 10.87 14.244 0
M  V30 762 H 10.604 10.335 15.026 0
M  V30 763 H 9.693 11.387 14.432 0
M  V30 764 O -7.175 -14.154 -14.684 0
M  V30 765 H -6.922 -14.323 -13.777 0
M  V30 766 H -6.526 -13.525 -15.002 0
M  V30 767 O -5.648 -5.254 9.109 0
M  V30 768 H -6.241 -4.607 9.492 0
M  V30 769 H -4.783 -4.85 9.164 0
M  V30 770 O 2.67 -8.492 -5.143 0
M  V30 771 H 2.538 -7.779 -5.768 0
M  V30 772 H 3.418 -8.979 -5.49 0
M  V30 773 O 6.807 -13.994 10.578 0
M  V30 774 H 6.236 -13.487 11.154 0
M  V30 775 H 7.242 -14.618 11.16 0
M  V30 776 O 5.199 -2.264 13.836 0
M  V30 777 H 5.178 -2.802 13.044 0
M  V30 778 H 4.47 -1.653 13.731 0
M  V30 779 O -10.889 -2.604 -6.053 0
M  V30 780 H -11.74 -2.212 -6.248 0
M  V30 781 H -10.295 -2.221 -6.699 0
M  V30 782 O 8.796 -2.371 -9.178 0
M  V30 783 H 8.027 -1.817 -9.047 0
M  V30 784 H 9.539 -1.802 -8.976 0
M  V30 785 O 10.573 2.509 -15.017 0
M  V30 786 H 10.447 3.334 -14.549 0
M  V30 787 H 11.077 2.748 -15.794 0
M  V30 788 O 7.952 -5.18 -16.568 0
M  V30 789 H 7.313 -4.471 -16.64 0
M  V30 790 H 8.638 -4.828 -16 0
M  V30 791 O -9.587 3.098 -14.436 0
M  V30 792 H -9.005 3.824 -14.211 0
M  V30 793 H -9.07 2.312 -14.259 0
M  V30 794 O 6.118 2.215 15.417 0
M  V30 795 H 5.506 1.571 15.772 0
M  V30 796 H 6.504 2.629 16.189 0
M  V30 797 O -13.477 -3.877 -14.535 0
M  V30 798 H -13.561 -4.197 -13.636 0
M  V30 799 H -14.342 -4.017 -14.92 0
M  V30 800 O 5.185 -3.713 11.227 0
M  V30 801 H 4.938 -3.863 10.314 0
M  V30 802 H 6.12 -3.513 11.193 0
M  V30 803 O 2.563 -0.164 10.249 0
M  V30 804 H 3.038 0.165 11.013 0
M  V30 805 H 2.083 0.596 9.92 0
M  V30 806 O -4.293 -0.043 14.591 0
M  V30 807 H -4.095 -0.782 14.016 0
M  V30 808 H -5.117 -0.283 15.016 0
M  V30 809 O 1.477 0.955 -11.575 0
M  V30 810 H 0.981 0.372 -11.001 0
M  V30 811 H 0.979 1.773 -11.575 0
M  V30 812 O -12.59 3.81 8.655 0
M  V30 813 H -12.135 3.15 9.178 0
M  V30 814 H -12.25 3.691 7.769 0
M  V30 815 O -6.487 5.98 15.905 0
M  V30 816 H -7.221 5.382 15.763 0
M  V30 817 H -5.934 5.87 15.131 0
M  V30 818 O 6.724 1.841 -12.992 0
M  V30 819 H 6.188 2.577 -12.698 0
M  V30 820 H 7.406 1.759 -12.326 0
M  V30 821 O 5.108 -0.15 -13.554 0
M  V30 822 H 4.842 -0.698 -12.815 0
M  V30 823 H 5.641 0.54 -13.161 0
M  V30 824 O 3.929 2.744 8.923 0
M  V30 825 H 4.872 2.762 8.758 0
M  V30 826 H 3.838 3.029 9.832 0
M  V30 827 O -13.716 -4.874 -11.997 0
M  V30 828 H -13.536 -4.494 -11.137 0
M  V30 829 H -13.173 -5.662 -12.029 0
M  V30 830 O -4.269 3.239 -10.757 0
M  V30 831 H -3.668 3.388 -11.487 0
M  V30 832 H -4.512 4.117 -10.464 0
M  V30 833 O 5.45 -3.969 -8.613 0
M  V30 834 H 5.759 -3.063 -8.612 0
M  V30 835 H 5.728 -4.317 -7.766 0
M  V30 836 O 5.063 4.945 -16.894 0
M  V30 837 H 4.152 4.837 -16.618 0
M  V30 838 H 5.429 5.572 -16.271 0
M  V30 839 O -2.714 -7.81 15.984 0
M  V30 840 H -3.584 -7.42 15.893 0
M  V30 841 H -2.113 -7.126 15.688 0
M  V30 842 O -0.401 -3.631 -13.485 0
M  V30 843 H 0.147 -3.436 -14.246 0
M  V30 844 H -1.24 -3.213 -13.679 0
M  V30 845 O -9.394 -0.699 -15.889 0
M  V30 846 H -10.093 -0.971 -15.294 0
M  V30 847 H -8.692 -0.397 -15.312 0
M  V30 848 O 3.89 -1.888 -11.569 0
M  V30 849 H 4.56 -2.499 -11.876 0
M  V30 850 H 3.091 -2.161 -12.02 0
M  V30 851 O -10.81 13.318 -10.781 0
M  V30 852 H -9.997 13.651 -11.161 0
M  V30 853 H -11.462 13.988 -10.986 0
M  V30 854 O 0.85 7.446 15.127 0
M  V30 855 H 1.061 7.55 14.199 0
M  V30 856 H 1.204 8.232 15.542 0
M  V30 857 O 2.716 -6.923 -16.219 0
M  V30 858 H 1.908 -7.43 -16.291 0
M  V30 859 H 3.001 -7.051 -15.314 0
M  V30 860 O 2.165 -2.673 15.578 0
M  V30 861 H 2.16 -2.153 14.775 0
M  V30 862 H 2.288 -3.574 15.28 0
M  V30 863 O -12.535 3.681 -13.692 0
M  V30 864 H -11.601 3.564 -13.868 0
M  V30 865 H -12.689 4.616 -13.828 0
M  V30 866 O 7.757 5.752 15.729 0
M  V30 867 H 7.431 6.6 15.427 0
M  V30 868 H 6.981 5.194 15.762 0
M  V30 869 O 1.692 -3.776 -11.806 0
M  V30 870 H 1.467 -4.665 -11.53 0
M  V30 871 H 1.128 -3.61 -12.561 0
M  V30 872 O 4.815 3.783 -12.66 0
M  V30 873 H 4.253 3.388 -13.326 0
M  V30 874 H 4.525 4.694 -12.61 0
M  V30 875 O 5.56 7.329 -15.358 0
M  V30 876 H 4.765 7.555 -14.875 0
M  V30 877 H 6.228 7.216 -14.682 0
M  V30 878 O -4.22 7.907 -13.257 0
M  V30 879 H -3.548 8.396 -13.731 0
M  V30 880 H -3.962 7.973 -12.337 0
M  V30 881 O 2.05 8.174 12.615 0
M  V30 882 H 2.237 9.097 12.449 0
M  V30 883 H 2.896 7.798 12.86 0
M  V30 884 O -2.987 7.525 14.73 0
M  V30 885 H -2.929 6.946 13.969 0
M  V30 886 H -2.848 6.948 15.481 0
M  V30 887 O -13.75 -6.191 15.738 0
M  V30 888 H -14.616 -5.786 15.775 0
M  V30 889 H -13.91 -7.069 15.392 0
M  V30 890 O -6.797 -5.816 -3.194 0
M  V30 891 H -7.361 -6.486 -3.58 0
M  V30 892 H -6.44 -6.227 -2.406 0
M  V30 893 O 13.017 12.175 -0.065 0
M  V30 894 H 13.411 13.027 0.118 0
M  V30 895 H 13.761 11.584 -0.176 0
M  V30 896 O -4.661 -13.347 12.135 0
M  V30 897 H -4.809 -12.463 12.471 0
M  V30 898 H -4.889 -13.923 12.864 0
M  V30 899 O -15.546 -11.181 -6.14 0
M  V30 900 H -15.259 -10.27 -6.204 0
M  V30 901 H -15.153 -11.611 -6.899 0
M  V30 902 O -4.78 -0.187 -12.998 0
M  V30 903 H -4.161 0.389 -13.447 0
M  V30 904 H -4.354 -0.394 -12.166 0
M  V30 905 O -3.259 -13.367 -13.486 0
M  V30 906 H -3.142 -12.602 -12.923 0
M  V30 907 H -3.688 -14.014 -12.926 0
M  V30 908 O -1.679 16.676 -15.226 0
M  V30 909 H -2.63 16.63 -15.325 0
M  V30 910 H -1.338 16.152 -15.951 0
M  V30 911 O 6.587 -6.538 -11.032 0
M  V30 912 H 6.145 -5.766 -10.679 0
M  V30 913 H 6.604 -6.393 -11.978 0
M  V30 914 O 7.745 10.812 -11.653 0
M  V30 915 H 8.064 9.943 -11.413 0
M  V30 916 H 6.956 10.932 -11.124 0
M  V30 917 O -8.809 -2.698 -13.648 0
M  V30 918 H -8.352 -1.912 -13.348 0
M  V30 919 H -9.715 -2.569 -13.367 0
M  V30 920 O -3.544 -4.324 -11.442 0
M  V30 921 H -2.73 -3.89 -11.187 0
M  V30 922 H -4.057 -3.639 -11.87 0
M  V30 923 O -2.83 -2.314 -13.959 0
M  V30 924 H -2.959 -1.455 -14.361 0
M  V30 925 H -3.515 -2.863 -14.342 0
M  V30 926 O 8.542 -3.106 -11.889 0
M  V30 927 H 8.586 -2.83 -10.973 0
M  V30 928 H 8.799 -4.028 -11.874 0
M  V30 929 O 17.174 -0.531 -15.355 0
M  V30 930 H 16.607 0.152 -15.716 0
M  V30 931 H 16.616 -1.308 -15.313 0
M  V30 932 O 12.836 -1.189 14.816 0
M  V30 933 H 12.227 -0.46 14.942 0
M  V30 934 H 13.57 -0.807 14.335 0
M  V30 935 O 1.192 0.523 -16.414 0
M  V30 936 H 0.31 0.167 -16.524 0
M  V30 937 H 1.498 0.155 -15.585 0
M  V30 938 O -11.399 -2.059 -14.072 0
M  V30 939 H -12.079 -2.688 -14.312 0
M  V30 940 H -11.798 -1.527 -13.383 0
M  V30 941 O 11.519 4.163 -11.109 0
M  V30 942 H 11.261 4.506 -10.254 0
M  V30 943 H 12.334 3.688 -10.942 0
M  V30 944 O -7.575 7.219 -11.267 0
M  V30 945 H -7.973 8.038 -11.562 0
M  V30 946 H -8.03 7.01 -10.451 0
M  V30 947 O -6.661 8.347 -15.542 0
M  V30 948 H -6.488 7.624 -16.145 0
M  V30 949 H -6.096 8.171 -14.79 0
M  V30 950 O 2.447 4.268 -7.742 0
M  V30 951 H 1.917 4.994 -8.07 0
M  V30 952 H 2.412 3.612 -8.439 0
M  V30 953 O 2.175 4.751 16.051 0
M  V30 954 H 1.371 4.365 15.705 0
M  V30 955 H 2.103 5.682 15.843 0
M  V30 956 O -0.022 -2.472 -16.081 0
M  V30 957 H 0.799 -2.468 -16.573 0
M  V30 958 H -0.597 -1.882 -16.568 0
M  V30 959 O 2.172 -0.25 -13.997 0
M  V30 960 H 3.123 -0.34 -13.929 0
M  V30 961 H 1.91 0.161 -13.173 0
M  V30 962 O 0.311 3.162 -10.016 0
M  V30 963 H -0.316 2.642 -9.513 0
M  V30 964 H -0.2 3.901 -10.345 0
M  V30 965 O 1.79 15.312 -13.522 0
M  V30 966 H 1.259 14.606 -13.154 0
M  V30 967 H 1.219 16.08 -13.496 0
M  V30 968 O -1.175 10.044 -13.755 0
M  V30 969 H -1.969 10.456 -14.095 0
M  V30 970 H -1.117 10.343 -12.848 0
M  V30 971 O 0.201 7.97 -11.138 0
M  V30 972 H 0.737 8.287 -11.865 0
M  V30 973 H 0.331 8.617 -10.445 0
M  V30 974 O 1.566 -11.932 -5.655 0
M  V30 975 H 2.144 -11.515 -6.294 0
M  V30 976 H 2.123 -12.567 -5.205 0
M  V30 977 O 3.616 -7.086 -13.619 0
M  V30 978 H 4.395 -7.237 -14.154 0
M  V30 979 H 3.883 -7.326 -12.732 0
M  V30 980 O 6.349 -14.787 -10.127 0
M  V30 981 H 5.434 -14.941 -10.361 0
M  V30 982 H 6.819 -14.825 -10.96 0
M  V30 983 O 5.331 -9.586 -10.21 0
M  V30 984 H 5.567 -10.387 -9.742 0
M  V30 985 H 6.164 -9.243 -10.533 0
M  V30 986 O 15.852 9.84 -7.265 0
M  V30 987 H 16.774 9.793 -7.014 0
M  V30 988 H 15.463 10.449 -6.637 0
M  V30 989 O -6.425 -4.689 -8.969 0
M  V30 990 H -5.883 -4.056 -9.441 0
M  V30 991 H -7.324 -4.455 -9.2 0
M  V30 992 O -3.517 -7.164 -11.181 0
M  V30 993 H -4.087 -7.212 -10.414 0
M  V30 994 H -3.083 -6.314 -11.105 0
M  V30 995 O 12.473 -0.577 -11.518 0
M  V30 996 H 13.31 -0.669 -11.062 0
M  V30 997 H 12.701 -0.182 -12.36 0
M  V30 998 O 11.055 -10.566 -15.666 0
M  V30 999 H 11.711 -10.897 -16.28 0
M  V30 1000 H 10.979 -11.251 -15.002 0
M  V30 1001 O 3.91 -0.27 -4.773 0
M  V30 1002 H 4.132 -0.915 -4.101 0
M  V30 1003 H 3.1 -0.598 -5.163 0
M  V30 1004 O 13.344 5.395 -2.881 0
M  V30 1005 H 14.044 5.901 -3.293 0
M  V30 1006 H 12.589 5.519 -3.455 0
M  V30 1007 O 0.865 6.221 -8.727 0
M  V30 1008 H 0.689 6.687 -9.545 0
M  V30 1009 H 0.03 6.236 -8.258 0
M  V30 1010 O -0.778 -7.27 -14.056 0
M  V30 1011 H 0.112 -7.022 -13.805 0
M  V30 1012 H -1.069 -6.565 -14.634 0
M  V30 1013 O 2.361 -6.574 -7.301 0
M  V30 1014 H 3.135 -6.036 -7.134 0
M  V30 1015 H 1.622 -5.987 -7.139 0
M  V30 1016 O 5.386 -7.273 -4.997 0
M  V30 1017 H 5.45 -8.071 -5.523 0
M  V30 1018 H 6.213 -7.234 -4.518 0
M  V30 1019 O -9.035 7.147 -8.991 0
M  V30 1020 H -8.577 7.572 -8.266 0
M  V30 1021 H -9.931 7.481 -8.937 0
M  V30 1022 O -7.663 5.642 -13.453 0
M  V30 1023 H -7.738 6.272 -12.736 0
M  V30 1024 H -7.891 6.142 -14.236 0
M  V30 1025 O 4.107 1.424 -7.779 0
M  V30 1026 H 4.198 1.984 -8.551 0
M  V30 1027 H 4.981 1.411 -7.388 0
M  V30 1028 O 8.002 3.545 -10.851 0
M  V30 1029 H 8.561 4.169 -10.387 0
M  V30 1030 H 7.216 3.479 -10.309 0
M  V30 1031 O 7.545 2.928 -15.458 0
M  V30 1032 H 8.456 2.652 -15.554 0
M  V30 1033 H 7.26 2.534 -14.634 0
M  V30 1034 O -13.564 1.602 -0.414 0
M  V30 1035 H -14.182 1.876 0.264 0
M  V30 1036 H -14.101 1.13 -1.051 0
M  V30 1037 O -14.56 1.553 -13.191 0
M  V30 1038 H -14.723 1.428 -14.126 0
M  V30 1039 H -13.698 1.969 -13.151 0
M  V30 1040 O 2.037 -0.454 -7.706 0
M  V30 1041 H 2.515 -1.229 -8.003 0
M  V30 1042 H 2.653 0.269 -7.826 0
M  V30 1043 O 11.196 5.142 -8.671 0
M  V30 1044 H 10.655 5.918 -8.52 0
M  V30 1045 H 10.811 4.469 -8.11 0
M  V30 1046 O -7.047 8.434 -7.517 0
M  V30 1047 H -6.656 8.992 -6.845 0
M  V30 1048 H -6.377 7.776 -7.702 0
M  V30 1049 O -3.111 8.335 -10.44 0
M  V30 1050 H -2.456 7.644 -10.538 0
M  V30 1051 H -2.952 8.695 -9.568 0
M  V30 1052 O -4.125 14.376 -12.739 0
M  V30 1053 H -4.424 14.864 -13.506 0
M  V30 1054 H -3.665 15.024 -12.207 0
M  V30 1055 O 0.724 7.796 -5.46 0
M  V30 1056 H 0.255 7.655 -6.283 0
M  V30 1057 H 0.034 7.866 -4.8 0
M  V30 1058 O 3.234 7.34 -4.806 0
M  V30 1059 H 3.161 7.006 -3.912 0
M  V30 1060 H 2.328 7.454 -5.094 0
M  V30 1061 O 0.971 11.333 15.98 0
M  V30 1062 H 0.43 11.863 16.565 0
M  V30 1063 H 0.362 10.703 15.594 0
M  V30 1064 O -8.916 -12.625 -8.19 0
M  V30 1065 H -8.617 -12.83 -7.304 0
M  V30 1066 H -8.935 -13.47 -8.639 0
M  V30 1067 O 5.328 12.192 -10.02 0
M  V30 1068 H 4.538 12.633 -9.708 0
M  V30 1069 H 5.145 11.26 -9.903 0
M  V30 1070 O 2.802 9.426 16.606 0
M  V30 1071 H 2.316 10.173 16.255 0
M  V30 1072 H 3.683 9.523 16.246 0
M  V30 1073 O 0.148 9.954 -1.852 0
M  V30 1074 H 0.493 10.706 -2.334 0
M  V30 1075 H -0.18 9.364 -2.53 0
M  V30 1076 O -2.831 -15.78 -1.336 0
M  V30 1077 H -3.704 -16.057 -1.612 0
M  V30 1078 H -2.978 -15.297 -0.523 0
M  V30 1079 O -9.844 10.628 0.663 0
M  V30 1080 H -10.749 10.94 0.692 0
M  V30 1081 H -9.849 9.829 1.19 0
M  V30 1082 O -1.525 9.861 -5.46 0
M  V30 1083 H -1.431 9.274 -6.21 0
M  V30 1084 H -1.57 9.278 -4.702 0
M  V30 1085 O -6.14 8.833 0.552 0
M  V30 1086 H -5.348 9.247 0.209 0
M  V30 1087 H -6.22 9.17 1.444 0
M  V30 1088 O -5.674 10.537 -14.093 0
M  V30 1089 H -6.588 10.25 -14.096 0
M  V30 1090 H -5.285 10.106 -14.854 0
M  V30 1091 O -0.609 12.193 -4.014 0
M  V30 1092 H 0.018 12.758 -4.464 0
M  V30 1093 H -0.584 11.37 -4.503 0
M  V30 1094 O -15.569 15.413 -4.737 0
M  V30 1095 H -15.048 16.12 -5.117 0
M  V30 1096 H -14.962 14.676 -4.673 0
M  V30 1097 O -16.424 12.081 -12.115 0
M  V30 1098 H -16.184 12.2 -13.033 0
M  V30 1099 H -17.381 12.054 -12.119 0
M  V30 1100 O 2.308 15.847 -1.15 0
M  V30 1101 H 1.616 15.187 -1.173 0
M  V30 1102 H 3.086 15.391 -1.471 0
M  V30 1103 O 3.531 11.884 -6.683 0
M  V30 1104 H 3.915 12.756 -6.768 0
M  V30 1105 H 4.258 11.326 -6.407 0
M  V30 1106 O -6.746 12.293 -9.7 0
M  V30 1107 H -7.691 12.188 -9.815 0
M  V30 1108 H -6.436 12.615 -10.546 0
M  V30 1109 O -0.756 -15.483 -9.421 0
M  V30 1110 H -0.894 -14.887 -10.156 0
M  V30 1111 H 0.035 -15.156 -8.991 0
M  V30 1112 O 8.156 -15.589 -7.92 0
M  V30 1113 H 7.799 -16.466 -8.059 0
M  V30 1114 H 7.937 -15.111 -8.72 0
M  V30 1115 O -13.889 -11.387 -13.079 0
M  V30 1116 H -14.838 -11.363 -12.955 0
M  V30 1117 H -13.686 -12.315 -13.195 0
M  V30 1118 O 4.795 -8.749 -7.238 0
M  V30 1119 H 4.778 -9.048 -8.147 0
M  V30 1120 H 5.105 -7.845 -7.288 0
M  V30 1121 O 3.546 -14.06 -9.827 0
M  V30 1122 H 3.59 -13.103 -9.823 0
M  V30 1123 H 2.906 -14.267 -10.507 0
M  V30 1124 O 7.599 15.964 -8.598 0
M  V30 1125 H 7.601 15.007 -8.62 0
M  V30 1126 H 7.482 16.225 -9.512 0
M  V30 1127 O 10.044 14.242 -6.802 0
M  V30 1128 H 9.09 14.177 -6.837 0
M  V30 1129 H 10.306 14.427 -7.704 0
M  V30 1130 O -9.353 14.822 -2.123 0
M  V30 1131 H -8.969 15.617 -1.752 0
M  V30 1132 H -10.161 14.692 -1.626 0
M  V30 1133 O -6.598 -7.275 -0.832 0
M  V30 1134 H -7.135 -6.555 -0.501 0
M  V30 1135 H -6.851 -8.028 -0.299 0
M  V30 1136 O -2.862 -11.229 -11.551 0
M  V30 1137 H -3.184 -10.551 -12.146 0
M  V30 1138 H -1.958 -10.976 -11.366 0
M  V30 1139 O -4.884 -12.244 -9.644 0
M  V30 1140 H -4.388 -12.069 -10.443 0
M  V30 1141 H -4.623 -11.546 -9.042 0
M  V30 1142 O -15.978 -6.952 1.717 0
M  V30 1143 H -15.707 -6.256 1.118 0
M  V30 1144 H -15.159 -7.281 2.088 0
M  V30 1145 O 9.996 -8.001 -13.554 0
M  V30 1146 H 10.615 -8.457 -12.984 0
M  V30 1147 H 9.702 -7.251 -13.036 0
M  V30 1148 O 13.547 9.318 -4.546 0
M  V30 1149 H 13.485 9.908 -5.297 0
M  V30 1150 H 13.527 8.441 -4.927 0
M  V30 1151 O 9.356 11.442 7.156 0
M  V30 1152 H 9.611 10.876 6.427 0
M  V30 1153 H 10.098 11.403 7.76 0
M  V30 1154 O 9.754 13.994 15.946 0
M  V30 1155 H 9.313 13.146 15.893 0
M  V30 1156 H 9.115 14.619 15.604 0
M  V30 1157 O 10.6 11.954 -1.068 0
M  V30 1158 H 10.365 12.879 -1.144 0
M  V30 1159 H 11.472 11.959 -0.673 0
M  V30 1160 O -3.031 15.948 -6.457 0
M  V30 1161 H -3.293 15.89 -5.538 0
M  V30 1162 H -2.19 16.406 -6.438 0
M  V30 1163 O 6.572 11.797 -6.259 0
M  V30 1164 H 7.185 12.24 -6.845 0
M  V30 1165 H 6.654 12.264 -5.428 0
M  V30 1166 O 13.862 14.68 2.738 0
M  V30 1167 H 13.682 15.331 3.417 0
M  V30 1168 H 13.069 14.146 2.702 0
M  V30 1169 O 4.087 16.249 -8.812 0
M  V30 1170 H 4.637 16.961 -8.485 0
M  V30 1171 H 4.123 15.582 -8.126 0
M  V30 1172 O -8.737 14.483 -12.461 0
M  V30 1173 H -8.961 15.031 -13.213 0
M  V30 1174 H -7.866 14.141 -12.665 0
M  V30 1175 O -9.358 11.957 -7.796 0
M  V30 1176 H -9.088 11.439 -7.037 0
M  V30 1177 H -9.489 11.313 -8.492 0
M  V30 1178 O -4.207 13.15 -4.047 0
M  V30 1179 H -3.927 14.064 -3.996 0
M  V30 1180 H -3.477 12.7 -4.474 0
M  V30 1181 O 6.828 13.48 -2.907 0
M  V30 1182 H 7.357 12.891 -2.368 0
M  V30 1183 H 7.436 13.811 -3.568 0
M  V30 1184 O 0.298 -12.527 -10.636 0
M  V30 1185 H 0.145 -11.787 -11.223 0
M  V30 1186 H -0.234 -12.335 -9.864 0
M  V30 1187 O -3.436 -10.377 -0.134 0
M  V30 1188 H -3.363 -9.934 0.712 0
M  V30 1189 H -2.558 -10.718 -0.303 0
M  V30 1190 O -4.516 -15.44 -4.873 0
M  V30 1191 H -3.684 -14.992 -5.025 0
M  V30 1192 H -5.016 -15.297 -5.677 0
M  V30 1193 O -5.232 -7.134 -9.117 0
M  V30 1194 H -5.699 -7.66 -8.467 0
M  V30 1195 H -5.715 -6.308 -9.148 0
M  V30 1196 O -3.109 -17.038 3.343 0
M  V30 1197 H -3.962 -16.69 3.085 0
M  V30 1198 H -2.651 -16.291 3.73 0
M  V30 1199 O 1.631 -12.705 0.753 0
M  V30 1200 H 2.03 -12.912 -0.093 0
M  V30 1201 H 2.286 -12.971 1.398 0
M  V30 1202 O 6.442 -13.002 0.424 0
M  V30 1203 H 6.009 -13.708 -0.056 0
M  V30 1204 H 5.921 -12.897 1.22 0
M  V30 1205 O -6.478 12.95 -12.531 0
M  V30 1206 H -6.273 12.132 -12.982 0
M  V30 1207 H -5.68 13.473 -12.607 0
M  V30 1208 O -4.048 -14.753 -11.225 0
M  V30 1209 H -3.982 -15.62 -10.826 0
M  V30 1210 H -3.895 -14.144 -10.503 0
M  V30 1211 O 1.622 -9.691 -2.218 0
M  V30 1212 H 1.574 -9.407 -1.305 0
M  V30 1213 H 2.559 -9.769 -2.397 0
M  V30 1214 O -2.042 -10.642 -4.738 0
M  V30 1215 H -2.373 -11.227 -5.42 0
M  V30 1216 H -2.772 -10.05 -4.555 0
M  V30 1217 O 11.833 -6.127 -2.678 0
M  V30 1218 H 11.426 -5.935 -1.834 0
M  V30 1219 H 11.4 -6.926 -2.979 0
M  V30 1220 O 13.479 2.695 -9.504 0
M  V30 1221 H 13.691 3.213 -8.728 0
M  V30 1222 H 13.25 1.831 -9.16 0
M  V30 1223 O -4.659 8.078 6.829 0
M  V30 1224 H -4.072 7.331 6.936 0
M  V30 1225 H -5.101 7.919 5.995 0
M  V30 1226 O -6.288 5.307 0.34 0
M  V30 1227 H -5.889 6.176 0.302 0
M  V30 1228 H -6.704 5.196 -0.515 0
M  V30 1229 O 4.051 13.692 -2.345 0
M  V30 1230 H 4.805 13.198 -2.667 0
M  V30 1231 H 3.396 13.024 -2.141 0
M  V30 1232 O 8.479 -16.572 -4.93 0
M  V30 1233 H 9.266 -16.289 -4.465 0
M  V30 1234 H 8.618 -16.287 -5.833 0
M  V30 1235 O -0.231 15.556 -2.728 0
M  V30 1236 H -0.532 14.653 -2.828 0
M  V30 1237 H 0.647 15.56 -3.109 0
M  V30 1238 O -5.729 11.525 -1.899 0
M  V30 1239 H -5.06 11.693 -2.563 0
M  V30 1240 H -5.599 10.609 -1.654 0
M  V30 1241 O -5.478 -15.677 2.673 0
M  V30 1242 H -4.97 -14.966 3.064 0
M  V30 1243 H -5.322 -15.594 1.732 0
M  V30 1244 O 5.527 13.261 7.687 0
M  V30 1245 H 4.675 12.873 7.883 0
M  V30 1246 H 5.389 14.203 7.78 0
M  V30 1247 O 12.917 16.301 4.936 0
M  V30 1248 H 12.568 16.729 5.718 0
M  V30 1249 H 12.569 16.814 4.206 0
M  V30 1250 O 0.594 14.663 3.529 0
M  V30 1251 H 0.062 15.108 2.869 0
M  V30 1252 H 0.31 13.749 3.49 0
M  V30 1253 O -11.986 15.241 -1.146 0
M  V30 1254 H -12.413 15.842 -1.756 0
M  V30 1255 H -12.525 14.45 -1.171 0
M  V30 1256 O 0.142 -14.957 1.655 0
M  V30 1257 H 0.749 -14.219 1.614 0
M  V30 1258 H 0.377 -15.504 0.906 0
M  V30 1259 O 1.427 -15.995 -2.448 0
M  V30 1260 H 1.522 -16.843 -2.015 0
M  V30 1261 H 1.846 -15.373 -1.854 0
M  V30 1262 O -15.436 10.525 10.561 0
M  V30 1263 H -15.334 9.749 11.113 0
M  V30 1264 H -16.339 10.477 10.245 0
M  V30 1265 O -12.496 14.531 -13.562 0
M  V30 1266 H -11.756 14.966 -13.986 0
M  V30 1267 H -12.336 13.597 -13.7 0
M  V30 1268 O -0.672 -17.152 -0.263 0
M  V30 1269 H -0.585 -17.65 -1.076 0
M  V30 1270 H -1.267 -16.436 -0.484 0
M  V30 1271 O 8.992 4.125 2.598 0
M  V30 1272 H 8.81 3.91 3.513 0
M  V30 1273 H 9.494 4.939 2.638 0
M  V30 1274 O -9.693 -15.148 -0.31 0
M  V30 1275 H -9.687 -14.191 -0.303 0
M  V30 1276 H -9.065 -15.397 0.368 0
M  V30 1277 O -3.065 15.539 -3.881 0
M  V30 1278 H -3.519 16.162 -3.314 0
M  V30 1279 H -2.138 15.759 -3.786 0
M  V30 1280 O 10.749 -14.806 1.241 0
M  V30 1281 H 10.057 -15.223 1.755 0
M  V30 1282 H 10.845 -15.364 0.47 0
M  V30 1283 O -10.482 -9.441 2.845 0
M  V30 1284 H -10.86 -10.058 3.472 0
M  V30 1285 H -9.958 -8.846 3.381 0
M  V30 1286 O 4.917 14.207 -5.886 0
M  V30 1287 H 5.848 14.273 -5.674 0
M  V30 1288 H 4.503 14.892 -5.36 0
M  V30 1289 O 5.249 -12.624 -3.142 0
M  V30 1290 H 5.937 -12.115 -2.713 0
M  V30 1291 H 4.91 -12.042 -3.823 0
M  V30 1292 O -8.38 0.417 -6.226 0
M  V30 1293 H -8.331 0.239 -7.165 0
M  V30 1294 H -9.248 0.799 -6.099 0
M  V30 1295 O -5.864 16.458 -6.306 0
M  V30 1296 H -5.368 15.656 -6.475 0
M  V30 1297 H -5.346 16.928 -5.654 0
M  V30 1298 O 7.446 -11.117 -2.657 0
M  V30 1299 H 7.392 -10.369 -2.063 0
M  V30 1300 H 8.127 -11.674 -2.28 0
M  V30 1301 O 2.327 -11.733 -8.705 0
M  V30 1302 H 1.548 -11.812 -9.256 0
M  V30 1303 H 2.432 -10.791 -8.572 0
M  V30 1304 O 5.009 -15.401 -7.593 0
M  V30 1305 H 5.898 -15.48 -7.939 0
M  V30 1306 H 4.541 -14.884 -8.249 0
M  V30 1307 O -0.499 6.501 4.888 0
M  V30 1308 H 0.243 6.817 5.405 0
M  V30 1309 H -0.338 6.838 4.007 0
M  V30 1310 O -4.737 13.91 8.189 0
M  V30 1311 H -5.511 14.393 8.479 0
M  V30 1312 H -4.953 13.618 7.304 0
M  V30 1313 O 0.05 7.029 1.918 0
M  V30 1314 H 0.955 7.049 1.608 0
M  V30 1315 H -0.414 7.639 1.345 0
M  V30 1316 O 8.584 16.723 -2.033 0
M  V30 1317 H 9.057 16.784 -1.203 0
M  V30 1318 H 7.693 16.479 -1.784 0
M  V30 1319 O 6.769 9.587 4.794 0
M  V30 1320 H 6.8 9.253 3.897 0
M  V30 1321 H 7.504 9.159 5.234 0
M  V30 1322 O -1.099 -9.438 1.572 0
M  V30 1323 H -1.279 -8.9 2.343 0
M  V30 1324 H -0.169 -9.299 1.394 0
M  V30 1325 O -5.952 8.146 4.168 0
M  V30 1326 H -6.293 8.94 3.756 0
M  V30 1327 H -5.12 7.984 3.724 0
M  V30 1328 O -10.545 13.534 3.685 0
M  V30 1329 H -9.971 12.769 3.637 0
M  V30 1330 H -11.154 13.423 2.955 0
M  V30 1331 O -3.288 10.078 5.372 0
M  V30 1332 H -3.934 9.635 5.921 0
M  V30 1333 H -3.582 9.914 4.476 0
M  V30 1334 O 14.574 -14.153 -1.966 0
M  V30 1335 H 14.512 -14.434 -1.053 0
M  V30 1336 H 15.512 -14.041 -2.119 0
M  V30 1337 O -1.12 -16.09 -3.697 0
M  V30 1338 H -1.728 -16.043 -2.96 0
M  V30 1339 H -0.252 -16.089 -3.293 0
M  V30 1340 O -5.244 -16.948 -2.628 0
M  V30 1341 H -6.163 -17.137 -2.437 0
M  V30 1342 H -5.264 -16.465 -3.454 0
M  V30 1343 O 2.473 16.088 1.736 0
M  V30 1344 H 1.997 16.127 0.907 0
M  V30 1345 H 1.828 15.772 2.369 0
M  V30 1346 O 9.719 -12.869 -1.086 0
M  V30 1347 H 10.223 -13.477 -1.627 0
M  V30 1348 H 9.653 -13.303 -0.236 0
M  V30 1349 O -9.056 -12.562 -2.623 0
M  V30 1350 H -8.274 -13.109 -2.693 0
M  V30 1351 H -9.337 -12.66 -1.713 0
M  V30 1352 O -11.667 -8.237 6.773 0
M  V30 1353 H -11.965 -7.69 7.5 0
M  V30 1354 H -12.455 -8.694 6.479 0
M  V30 1355 O 2.85 -14.901 -4.917 0
M  V30 1356 H 3.631 -15.424 -5.101 0
M  V30 1357 H 2.442 -15.336 -4.168 0
M  V30 1358 O -15.313 -10.546 -0.075 0
M  V30 1359 H -14.848 -11.23 -0.557 0
M  V30 1360 H -16.239 -10.746 -0.208 0
M  V30 1361 O -3.592 -12.628 -3.098 0
M  V30 1362 H -2.823 -12.682 -3.666 0
M  V30 1363 H -3.265 -12.856 -2.228 0
M  V30 1364 O 1.707 15.698 -6.862 0
M  V30 1365 H 1.229 15.57 -7.681 0
M  V30 1366 H 1.139 16.265 -6.339 0
M  V30 1367 O 3.432 -13.899 -1.234 0
M  V30 1368 H 3.9 -14.579 -0.75 0
M  V30 1369 H 3.973 -13.74 -2.008 0
M  V30 1370 O 15.746 16.77 5.615 0
M  V30 1371 H 15.86 17.715 5.513 0
M  V30 1372 H 14.849 16.603 5.325 0
M  V30 1373 O -3.903 -8.023 -1.574 0
M  V30 1374 H -3.778 -8.902 -1.216 0
M  V30 1375 H -4.602 -7.644 -1.041 0
M  V30 1376 O -8.241 -11.409 5.759 0
M  V30 1377 H -7.549 -11.366 5.099 0
M  V30 1378 H -8.862 -12.05 5.414 0
M  V30 1379 O 1.553 -9.297 1.31 0
M  V30 1380 H 2.211 -9.992 1.279 0
M  V30 1381 H 1.864 -8.645 0.682 0
M  V30 1382 O 3.744 -10.339 -0.176 0
M  V30 1383 H 4.489 -10.197 0.409 0
M  V30 1384 H 3.939 -11.166 -0.616 0
M  V30 1385 O 1.244 -14.615 5.4 0
M  V30 1386 H 1.914 -15.158 4.985 0
M  V30 1387 H 0.668 -15.239 5.841 0
M  V30 1388 O -8.478 14.197 11.924 0
M  V30 1389 H -9.373 14.495 12.085 0
M  V30 1390 H -8.297 13.585 12.637 0
M  V30 1391 O -1.747 12.312 6.081 0
M  V30 1392 H -2.185 13.11 5.787 0
M  V30 1393 H -2.277 11.601 5.721 0
M  V30 1394 O 15.525 -7.869 -2.254 0
M  V30 1395 H 14.756 -8.201 -1.79 0
M  V30 1396 H 15.646 -8.476 -2.983 0
M  V30 1397 O 7.805 11.611 -1.369 0
M  V30 1398 H 7.261 11.521 -0.587 0
M  V30 1399 H 8.676 11.332 -1.089 0
M  V30 1400 O -0.114 -16.22 9.414 0
M  V30 1401 H 0.212 -16.448 8.543 0
M  V30 1402 H -0.981 -16.623 9.458 0
M  V30 1403 O -2.269 5.809 12.888 0
M  V30 1404 H -2.778 5.574 12.112 0
M  V30 1405 H -2.265 5.015 13.423 0
M  V30 1406 O 0.903 4.362 12.415 0
M  V30 1407 H 1.123 3.449 12.603 0
M  V30 1408 H 0.378 4.641 13.166 0
M  V30 1409 O 0.873 12.071 2.472 0
M  V30 1410 H 1.411 11.556 1.871 0
M  V30 1411 H 1.263 11.92 3.333 0
M  V30 1412 O -2.17 11.657 -1.893 0
M  V30 1413 H -1.686 11.902 -1.105 0
M  V30 1414 H -1.587 11.889 -2.616 0
M  V30 1415 O -13.873 15.545 2.371 0
M  V30 1416 H -14.533 15.03 1.906 0
M  V30 1417 H -13.037 15.163 2.102 0
M  V30 1418 O -14.701 16.166 8.782 0
M  V30 1419 H -15.384 15.983 8.137 0
M  V30 1420 H -13.903 16.269 8.263 0
M  V30 1421 O -3.547 -11.654 6.405 0
M  V30 1422 H -3.726 -10.721 6.518 0
M  V30 1423 H -2.684 -11.686 5.992 0
M  V30 1424 O -3.314 14.067 4.872 0
M  V30 1425 H -2.573 14.624 4.636 0
M  V30 1426 H -3.936 14.178 4.153 0
M  V30 1427 O 2.46 -16.622 4.17 0
M  V30 1428 H 2.575 -17.298 4.838 0
M  V30 1429 H 2.385 -17.107 3.348 0
M  V30 1430 O 6.357 12.525 5.076 0
M  V30 1431 H 6.052 12.818 5.935 0
M  V30 1432 H 6.622 11.615 5.213 0
M  V30 1433 O 9.632 15.26 2.643 0
M  V30 1434 H 10.264 14.78 3.179 0
M  V30 1435 H 8.814 15.215 3.138 0
M  V30 1436 O -5.791 13.134 5.77 0
M  V30 1437 H -5.076 12.916 5.172 0
M  V30 1438 H -6.264 13.84 5.331 0
M  V30 1439 O -0.066 10.881 7.515 0
M  V30 1440 H -0.531 10.482 8.25 0
M  V30 1441 H -0.718 11.441 7.094 0
M  V30 1442 O -7.438 14.934 16.139 0
M  V30 1443 H -6.927 15.738 16.046 0
M  V30 1444 H -6.88 14.252 15.764 0
M  V30 1445 O 1.936 11.932 4.978 0
M  V30 1446 H 1.647 11.241 5.574 0
M  V30 1447 H 2.014 12.709 5.531 0
M  V30 1448 O 5.103 -15.763 0.047 0
M  V30 1449 H 5.588 -16.014 0.833 0
M  V30 1450 H 5.313 -16.444 -0.593 0
M  V30 1451 O 8.353 -7.172 -4.782 0
M  V30 1452 H 8.856 -6.761 -5.485 0
M  V30 1453 H 9.014 -7.563 -4.21 0
M  V30 1454 O -4.199 -14.567 9.477 0
M  V30 1455 H -3.965 -14.797 10.376 0
M  V30 1456 H -5.085 -14.912 9.364 0
M  V30 1457 O -1.712 11.149 3.105 0
M  V30 1458 H -1.67 10.371 3.661 0
M  V30 1459 H -0.799 11.402 2.976 0
M  V30 1460 O -0.192 -17.221 14.01 0
M  V30 1461 H 0.437 -17.108 13.298 0
M  V30 1462 H -0.882 -16.584 13.825 0
M  V30 1463 O 4.635 -9.734 2.485 0
M  V30 1464 H 3.82 -9.35 2.81 0
M  V30 1465 H 5.299 -9.457 3.115 0
M  V30 1466 O -1.496 -14.911 4.208 0
M  V30 1467 H -1.747 -14.03 4.489 0
M  V30 1468 H -0.555 -14.852 4.046 0
M  V30 1469 O 1.825 -11.13 10.802 0
M  V30 1470 H 1.268 -10.565 11.338 0
M  V30 1471 H 2.584 -11.313 11.355 0
M  V30 1472 O -4.27 -13.524 4.016 0
M  V30 1473 H -3.668 -12.782 4.072 0
M  V30 1474 H -4.237 -13.926 4.884 0
M  V30 1475 O 8.38 -9.817 3.263 0
M  V30 1476 H 8.622 -10.718 3.477 0
M  V30 1477 H 8.358 -9.368 4.108 0
M  V30 1478 O 1.814 -8.888 4.331 0
M  V30 1479 H 1.615 -9.002 3.402 0
M  V30 1480 H 0.962 -8.75 4.745 0
M  V30 1481 O 1.308 -14.645 -15.005 0
M  V30 1482 H 1.767 -14.967 -15.781 0
M  V30 1483 H 0.769 -13.923 -15.327 0
M  V30 1484 O 9.592 2.009 -2.961 0
M  V30 1485 H 9.905 1.316 -3.542 0
M  V30 1486 H 10.124 1.917 -2.17 0
M  V30 1487 O -0.058 -16.544 6.626 0
M  V30 1488 H 0.395 -17.371 6.788 0
M  V30 1489 H -0.874 -16.797 6.194 0
M  V30 1490 O -15.312 15.931 -1.053 0
M  V30 1491 H -14.693 16.255 -1.707 0
M  V30 1492 H -15.198 14.98 -1.065 0
M  V30 1493 O 2.56 16.444 11.916 0
M  V30 1494 H 3.47 16.245 12.133 0
M  V30 1495 H 2.59 17.321 11.534 0
M  V30 1496 O -2.736 6.191 6.819 0
M  V30 1497 H -2.219 5.929 7.581 0
M  V30 1498 H -2.09 6.324 6.125 0
M  V30 1499 O 6.959 8.188 2.274 0
M  V30 1500 H 7.66 8.599 1.768 0
M  V30 1501 H 7.071 7.25 2.121 0
M  V30 1502 O 4.367 9.472 2.09 0
M  V30 1503 H 5.312 9.327 2.037 0
M  V30 1504 H 4.266 10.153 2.755 0
M  V30 1505 O -2.929 12.534 9.994 0
M  V30 1506 H -2.184 12.284 9.447 0
M  V30 1507 H -3.577 12.873 9.376 0
M  V30 1508 O -4.004 9.499 -2.797 0
M  V30 1509 H -3.394 8.841 -3.132 0
M  V30 1510 H -3.503 10.314 -2.801 0
M  V30 1511 O 2.962 8.759 -1.768 0
M  V30 1512 H 2.363 9.451 -2.048 0
M  V30 1513 H 3.811 9.016 -2.128 0
M  V30 1514 O 2.63 7.222 4.19 0
M  V30 1515 H 2.605 7.02 3.255 0
M  V30 1516 H 1.992 7.928 4.3 0
M  V30 1517 O 11.315 -13.946 -16.155 0
M  V30 1518 H 11.985 -13.382 -15.767 0
M  V30 1519 H 11.769 -14.769 -16.334 0
M  V30 1520 O 16.983 -16.281 -0.865 0
M  V30 1521 H 16.227 -16.687 -0.44 0
M  V30 1522 H 17.665 -16.952 -0.835 0
M  V30 1523 O -3.819 10.539 0.164 0
M  V30 1524 H -3.261 10.987 -0.471 0
M  V30 1525 H -3.726 11.05 0.968 0
M  V30 1526 O 4.048 -11.503 14.619 0
M  V30 1527 H 4.173 -10.555 14.585 0
M  V30 1528 H 3.122 -11.616 14.835 0
M  V30 1529 O 8.645 8.351 -11.012 0
M  V30 1530 H 8.74 7.765 -10.261 0
M  V30 1531 H 9.418 8.178 -11.55 0
M  V30 1532 O -14.069 -14.068 9.187 0
M  V30 1533 H -14.461 -14.278 8.339 0
M  V30 1534 H -14.631 -13.382 9.547 0
M  V30 1535 O -1.671 15.126 1.544 0
M  V30 1536 H -1.381 15.833 0.968 0
M  V30 1537 H -2.422 15.49 2.013 0
M  V30 1538 O -1.591 -13.67 10.053 0
M  V30 1539 H -2.38 -13.708 9.512 0
M  V30 1540 H -1.137 -14.493 9.872 0
M  V30 1541 O -2.432 16.211 -11.395 0
M  V30 1542 H -2.081 17.099 -11.459 0
M  V30 1543 H -2.154 15.905 -10.532 0
M  V30 1544 O 13.687 9.775 9.577 0
M  V30 1545 H 13.724 10.259 10.403 0
M  V30 1546 H 14.545 9.357 9.506 0
M  V30 1547 O -4.666 -10.707 13.708 0
M  V30 1548 H -5.578 -10.8 13.985 0
M  V30 1549 H -4.718 -10.293 12.846 0
M  V30 1550 O -11.071 -9.16 12.642 0
M  V30 1551 H -10.917 -9.271 11.704 0
M  V30 1552 H -10.953 -10.037 13.009 0
M  V30 1553 O 4.877 -9.092 8.208 0
M  V30 1554 H 4.356 -9.885 8.334 0
M  V30 1555 H 4.578 -8.496 8.895 0
M  V30 1556 O -5.952 -10.44 4.373 0
M  V30 1557 H -6.062 -9.585 4.788 0
M  V30 1558 H -5.129 -10.775 4.728 0
M  V30 1559 O -3.875 -14.304 6.793 0
M  V30 1560 H -3.778 -13.357 6.689 0
M  V30 1561 H -3.96 -14.435 7.737 0
M  V30 1562 O 2.397 -1.067 13.429 0
M  V30 1563 H 2.832 -0.233 13.253 0
M  V30 1564 H 1.867 -1.231 12.649 0
M  V30 1565 O -6.595 -15.328 5.882 0
M  V30 1566 H -5.693 -15.084 6.091 0
M  V30 1567 H -6.974 -15.589 6.721 0
M  V30 1568 O 8.917 -8.912 -15.835 0
M  V30 1569 H 9.681 -9.46 -16.017 0
M  V30 1570 H 9.086 -8.544 -14.968 0
M  V30 1571 O 13.695 -16.518 9.373 0
M  V30 1572 H 14.074 -15.651 9.226 0
M  V30 1573 H 13.468 -16.525 10.303 0
M  V30 1574 O 15.112 13.772 10.68 0
M  V30 1575 H 14.526 13.621 9.938 0
M  V30 1576 H 15.927 13.333 10.435 0
M  V30 1577 O -7.453 3.454 12.484 0
M  V30 1578 H -6.529 3.544 12.718 0
M  V30 1579 H -7.92 3.956 13.152 0
M  V30 1580 O -9.637 7.161 15.437 0
M  V30 1581 H -9.206 7.955 15.753 0
M  V30 1582 H -10.218 6.902 16.152 0
M  V30 1583 O 11.85 14.634 11.358 0
M  V30 1584 H 12.304 14.563 10.519 0
M  V30 1585 H 10.922 14.672 11.127 0
M  V30 1586 O 5.726 4.178 4.567 0
M  V30 1587 H 5.878 5.119 4.655 0
M  V30 1588 H 6.601 3.79 4.582 0
M  V30 1589 O 3.891 1.18 12.381 0
M  V30 1590 H 3.485 1.627 13.123 0
M  V30 1591 H 4.815 1.425 12.428 0
M  V30 1592 O -1.71 15.357 11.034 0
M  V30 1593 H -2.34 16.008 11.342 0
M  V30 1594 H -1.916 15.244 10.106 0
M  V30 1595 O -9.518 11.625 13.496 0
M  V30 1596 H -8.708 11.119 13.567 0
M  V30 1597 H -9.923 11.317 12.686 0
M  V30 1598 O -2.15 15.202 8.191 0
M  V30 1599 H -2.443 15.831 7.532 0
M  V30 1600 H -2.877 14.583 8.272 0
M  V30 1601 O 3.363 8.419 9.583 0
M  V30 1602 H 3.267 9.371 9.588 0
M  V30 1603 H 2.55 8.097 9.192 0
M  V30 1604 O 7.69 15.046 4.464 0
M  V30 1605 H 7.36 15.842 4.882 0
M  V30 1606 H 6.915 14.496 4.349 0
M  V30 1607 O 1.089 9.154 5.686 0
M  V30 1608 H 0.644 9.798 6.237 0
M  V30 1609 H 1.275 8.423 6.275 0
M  V30 1610 O -10.175 15.299 15.833 0
M  V30 1611 H -9.219 15.285 15.786 0
M  V30 1612 H -10.41 14.446 16.198 0
M  V30 1613 O -9.437 -14.996 -9.251 0
M  V30 1614 H -10.335 -15.149 -8.959 0
M  V30 1615 H -8.917 -15.646 -8.78 0
M  V30 1616 O 6.689 11.226 1.612 0
M  V30 1617 H 5.783 11.44 1.837 0
M  V30 1618 H 7.117 12.076 1.508 0
M  V30 1619 O 7.505 15.046 8.724 0
M  V30 1620 H 7.855 15.933 8.641 0
M  V30 1621 H 8.138 14.494 8.265 0
M  V30 1622 O -5.524 -12.105 8.836 0
M  V30 1623 H -5.122 -12.811 9.342 0
M  V30 1624 H -4.892 -11.916 8.143 0
M  V30 1625 O 1.95 13.105 7.651 0
M  V30 1626 H 1.495 12.271 7.766 0
M  V30 1627 H 2.041 13.454 8.538 0
M  V30 1628 O 10.267 -14.759 11.399 0
M  V30 1629 H 9.861 -14.361 12.169 0
M  V30 1630 H 10.939 -15.34 11.756 0
M  V30 1631 O -11.543 -15.141 16.531 0
M  V30 1632 H -11.083 -15.644 15.859 0
M  V30 1633 H -10.862 -14.611 16.943 0
M  V30 1634 O -0.784 -8.311 5.04 0
M  V30 1635 H -0.809 -7.736 4.275 0
M  V30 1636 H -1.589 -8.11 5.518 0
M  V30 1637 O 7.714 15.937 12.715 0
M  V30 1638 H 7.714 15.023 12.43 0
M  V30 1639 H 8.006 15.904 13.626 0
M  V30 1640 O 2.051 -13.662 -12.374 0
M  V30 1641 H 1.6 -14.176 -13.044 0
M  V30 1642 H 1.347 -13.249 -11.874 0
M  V30 1643 O -16.769 -14.081 3.309 0
M  V30 1644 H -17.225 -13.588 3.991 0
M  V30 1645 H -16.634 -14.948 3.69 0
M  V30 1646 O 1.344 -12.123 6.266 0
M  V30 1647 H 1.206 -13.052 6.083 0
M  V30 1648 H 1.793 -11.789 5.489 0
M  V30 1649 O -4.016 -8.329 3.082 0
M  V30 1650 H -3.768 -7.491 2.691 0
M  V30 1651 H -4.822 -8.14 3.562 0
M  V30 1652 O 2.061 -15.02 10.849 0
M  V30 1653 H 1.319 -15.602 10.684 0
M  V30 1654 H 1.843 -14.58 11.671 0
M  V30 1655 O -7.544 -12.304 13.451 0
M  V30 1656 H -8.483 -12.319 13.637 0
M  V30 1657 H -7.426 -11.549 12.875 0
M  V30 1658 O 13.021 -4.608 14.709 0
M  V30 1659 H 12.147 -4.353 14.413 0
M  V30 1660 H 12.924 -4.746 15.651 0
M  V30 1661 O 6.429 -12.619 5.464 0
M  V30 1662 H 6.34 -11.703 5.727 0
M  V30 1663 H 6.363 -13.111 6.282 0
M  V30 1664 O -10.203 7.644 -13.933 0
M  V30 1665 H -9.465 8.041 -13.471 0
M  V30 1666 H -10.695 8.386 -14.284 0
M  V30 1667 O 7.42 6.953 -13.359 0
M  V30 1668 H 7.381 7.104 -12.415 0
M  V30 1669 H 8.273 6.543 -13.502 0
M  V30 1670 O 10.714 15.081 8.644 0
M  V30 1671 H 10.158 15.7 9.118 0
M  V30 1672 H 10.139 14.705 7.977 0
M  V30 1673 O 4.897 10.355 7.129 0
M  V30 1674 H 4.625 9.443 7.229 0
M  V30 1675 H 5.671 10.314 6.566 0
M  V30 1676 O -0.025 12.192 11.287 0
M  V30 1677 H -0.846 12.586 11.58 0
M  V30 1678 H 0.47 12.919 10.91 0
M  V30 1679 O 13.425 11.079 16.473 0
M  V30 1680 H 12.781 10.425 16.201 0
M  V30 1681 H 13.904 11.291 15.672 0
M  V30 1682 O 13.21 13.89 8.753 0
M  V30 1683 H 12.311 14.219 8.769 0
M  V30 1684 H 13.443 13.872 7.825 0
M  V30 1685 O -0.791 6.204 -14.378 0
M  V30 1686 H -0.281 7.013 -14.419 0
M  V30 1687 H -1.091 6.156 -13.47 0
M  V30 1688 O -12.552 15.121 -6.074 0
M  V30 1689 H -12.887 16.018 -6.072 0
M  V30 1690 H -11.678 15.191 -5.69 0
M  V30 1691 O -10.834 12.263 10.792 0
M  V30 1692 H -10.522 12.972 11.354 0
M  V30 1693 H -10.039 11.89 10.412 0
M  V30 1694 O 2.903 13.287 15.507 0
M  V30 1695 H 2.314 12.547 15.65 0
M  V30 1696 H 2.527 13.998 16.026 0
M  V30 1697 O 4.484 6.826 13.688 0
M  V30 1698 H 4.48 5.933 14.032 0
M  V30 1699 H 5.014 7.322 14.312 0
M  V30 1700 O -2.862 -10.086 -15.746 0
M  V30 1701 H -2.83 -9.346 -16.352 0
M  V30 1702 H -2.802 -9.687 -14.877 0
M  V30 1703 O -8.324 -16.695 -15.975 0
M  V30 1704 H -8.056 -16.664 -15.057 0
M  V30 1705 H -7.526 -16.495 -16.465 0
M  V30 1706 O -1.019 9.908 14.643 0
M  V30 1707 H -1.68 9.216 14.65 0
M  V30 1708 H -1.443 10.64 14.196 0
M  V30 1709 O 6.44 -15.473 16.203 0
M  V30 1710 H 5.864 -15.377 15.445 0
M  V30 1711 H 6.702 -14.578 16.42 0
M  V30 1712 O 12.289 14.162 14.083 0
M  V30 1713 H 11.408 14.257 14.447 0
M  V30 1714 H 12.162 14.193 13.135 0
M  V30 1715 O -2.944 14.609 13.722 0
M  V30 1716 H -2.194 14.484 13.14 0
M  V30 1717 H -3.544 15.164 13.223 0
M  V30 1718 O 0.813 -13.385 12.758 0
M  V30 1719 H 0.281 -13.158 11.995 0
M  V30 1720 H 0.406 -12.913 13.484 0
M  V30 1721 O 4.773 -15.093 13.739 0
M  V30 1722 H 4.518 -14.323 13.229 0
M  V30 1723 H 4.661 -15.828 13.136 0
M  V30 1724 O 5.707 -6.008 9.103 0
M  V30 1725 H 5.995 -6.775 9.599 0
M  V30 1726 H 6.506 -5.667 8.703 0
M  V30 1727 O -0.504 -6.309 14.559 0
M  V30 1728 H -0.152 -5.646 15.153 0
M  V30 1729 H -0.791 -5.815 13.791 0
M  V30 1730 O 4.755 -15.454 9.228 0
M  V30 1731 H 5.602 -15.008 9.249 0
M  V30 1732 H 4.216 -14.975 9.857 0
M  V30 1733 O -2.647 5.853 -16.322 0
M  V30 1734 H -1.938 6.334 -15.895 0
M  V30 1735 H -3.026 5.316 -15.625 0
M  V30 1736 O -0.297 4.935 14.915 0
M  V30 1737 H 0.024 5.834 14.982 0
M  V30 1738 H -0.936 4.854 15.623 0
M  V30 1739 O -4.567 -16.671 -9.113 0
M  V30 1740 H -4.371 -17.055 -8.258 0
M  V30 1741 H -4.931 -17.394 -9.623 0
M  V30 1742 O 9.472 -16.185 14.722 0
M  V30 1743 H 10.378 -16.009 14.468 0
M  V30 1744 H 9.03 -15.341 14.634 0
M  V30 1745 O -3.093 12.222 -10.463 0
M  V30 1746 H -3.619 11.681 -9.874 0
M  V30 1747 H -2.436 11.623 -10.817 0
M  V30 1748 O -3.929 -16.515 13.771 0
M  V30 1749 H -3.405 -15.867 14.243 0
M  V30 1750 H -4.082 -16.12 12.913 0
M  V30 1751 O 1.587 -14.951 -7.969 0
M  V30 1752 H 2.443 -14.576 -8.179 0
M  V30 1753 H 1.447 -14.729 -7.049 0
M  V30 1754 O 9.481 10.937 11.54 0
M  V30 1755 H 9.775 10.835 12.445 0
M  V30 1756 H 8.885 10.202 11.397 0
M  V30 1757 O -1.303 -3.863 9.57 0
M  V30 1758 H -2.101 -3.336 9.612 0
M  V30 1759 H -0.636 -3.263 9.236 0
M  V30 1760 O -4.198 11.909 2.886 0
M  V30 1761 H -3.264 11.816 3.075 0
M  V30 1762 H -4.306 12.833 2.659 0
M  V30 1763 O -2.127 -14.63 -15.484 0
M  V30 1764 H -2.459 -14.129 -14.74 0
M  V30 1765 H -1.963 -15.504 -15.131 0
M  V30 1766 O -7.408 -16.726 8.086 0
M  V30 1767 H -7.557 -17.671 8.122 0
M  V30 1768 H -7.749 -16.397 8.918 0
M  V30 1769 O -17.174 -16.707 11.089 0
M  V30 1770 H -17.235 -16.592 10.141 0
M  V30 1771 H -16.237 -16.659 11.278 0
M  V30 1772 O 9.759 -11.235 14.628 0
M  V30 1773 H 9.491 -10.341 14.413 0
M  V30 1774 H 10.682 -11.157 14.867 0
M  V30 1775 O 2.576 -10.903 -12.902 0
M  V30 1776 H 3.329 -10.857 -13.493 0
M  V30 1777 H 2.518 -11.828 -12.66 0
M  V30 1778 O -0.263 -10.228 -12.102 0
M  V30 1779 H 0.669 -10.216 -12.32 0
M  V30 1780 H -0.481 -9.312 -11.93 0
M  V30 1781 O -5.464 12.9 11.79 0
M  V30 1782 H -5.122 12.081 11.432 0
M  V30 1783 H -5.858 13.344 11.039 0
M  V30 1784 O -5.105 13.946 -7.383 0
M  V30 1785 H -4.474 13.665 -6.721 0
M  V30 1786 H -5.713 13.21 -7.463 0
M  V30 1787 O 11.949 8.237 -16.364 0
M  V30 1788 H 11.852 8.529 -15.457 0
M  V30 1789 H 11.16 7.725 -16.537 0
M  V30 1790 O 1.886 15.497 6.115 0
M  V30 1791 H 1.346 15.109 5.426 0
M  V30 1792 H 2.017 14.789 6.745 0
M  V30 1793 O -2.887 0.413 -15.029 0
M  V30 1794 H -3.501 0.371 -15.762 0
M  V30 1795 H -2.394 1.221 -15.175 0
M  V30 1796 O -3.825 2.868 13.812 0
M  V30 1797 H -3.11 2.255 13.638 0
M  V30 1798 H -4.527 2.323 14.167 0
M  V30 1799 O -10.697 -10.092 -10.391 0
M  V30 1800 H -10.469 -9.164 -10.331 0
M  V30 1801 H -10.212 -10.409 -11.153 0
M  V30 1802 O -14.074 -15.373 15.969 0
M  V30 1803 H -13.947 -15.478 15.026 0
M  V30 1804 H -13.19 -15.277 16.321 0
M  V30 1805 O -2.4 -14.519 14.712 0
M  V30 1806 H -2.068 -14.656 15.599 0
M  V30 1807 H -2.638 -13.593 14.685 0
M  V30 1808 O -7.039 -8.535 -13.822 0
M  V30 1809 H -6.354 -7.87 -13.877 0
M  V30 1810 H -6.94 -9.049 -14.624 0
M  V30 1811 O -10.102 -13.629 -11.802 0
M  V30 1812 H -9.72 -12.792 -12.068 0
M  V30 1813 H -9.439 -14.026 -11.237 0
M  V30 1814 O 2.505 -15.919 15.934 0
M  V30 1815 H 3.349 -15.489 15.799 0
M  V30 1816 H 2.259 -16.243 15.068 0
M  V30 1817 O 1.152 -6.311 -10.784 0
M  V30 1818 H 1.982 -6.687 -11.076 0
M  V30 1819 H 0.506 -6.997 -10.951 0
M  V30 1820 O 4.669 -13.763 -13.009 0
M  V30 1821 H 4.743 -14.717 -12.974 0
M  V30 1822 H 3.756 -13.586 -12.783 0
M  V30 1823 O -7.436 -9.327 -8.797 0
M  V30 1824 H -7.443 -9.278 -9.753 0
M  V30 1825 H -8.297 -9.002 -8.534 0
M  V30 1826 O -1.361 -0.619 15.277 0
M  V30 1827 H -2.128 -0.046 15.309 0
M  V30 1828 H -0.895 -0.351 14.485 0
M  V30 1829 O -5.831 10.195 -5.46 0
M  V30 1830 H -5.603 9.568 -4.773 0
M  V30 1831 H -4.997 10.594 -5.707 0
M  V30 1832 O 7.087 7.287 -3.669 0
M  V30 1833 H 7.507 7.385 -2.815 0
M  V30 1834 H 6.449 8 -3.706 0
M  V30 1835 O 4.475 14.301 13.504 0
M  V30 1836 H 5.225 14.474 14.073 0
M  V30 1837 H 3.763 14.082 14.106 0
M  V30 1838 O -4.579 10.439 -9.031 0
M  V30 1839 H -5.503 10.674 -8.954 0
M  V30 1840 H -4.582 9.602 -9.495 0
M  V30 1841 O -9.181 4.758 -7.215 0
M  V30 1842 H -10.053 4.365 -7.192 0
M  V30 1843 H -9.255 5.47 -7.851 0
M  V30 1844 O -4.546 15.874 -15.242 0
M  V30 1845 H -4.954 16.739 -15.283 0
M  V30 1846 H -5.014 15.356 -15.897 0
M  V30 1847 O -1.192 12.683 -16.012 0
M  V30 1848 H -1.057 13.591 -16.284 0
M  V30 1849 H -1.96 12.715 -15.441 0
M  V30 1850 O 3.294 10.235 -9.19 0
M  V30 1851 H 3.349 10.979 -8.591 0
M  V30 1852 H 3.39 9.466 -8.628 0
M  V30 1853 O 0.946 16.385 -9.562 0
M  V30 1854 H 1.664 16.745 -9.042 0
M  V30 1855 H 0.455 17.152 -9.857 0
M  V30 1856 O -10.959 16.786 -11.138 0
M  V30 1857 H -10.451 16.007 -11.364 0
M  V30 1858 H -10.301 17.453 -10.942 0
M  V30 1859 O -4.608 9.197 10.381 0
M  V30 1860 H -5.07 9.27 9.546 0
M  V30 1861 H -3.84 9.76 10.281 0
M  V30 1862 O 7.454 13.265 -8.871 0
M  V30 1863 H 8.122 13.442 -9.533 0
M  V30 1864 H 6.777 12.775 -9.337 0
M  V30 1865 O 11.391 -14.823 -12.611 0
M  V30 1866 H 10.916 -15.223 -13.34 0
M  V30 1867 H 11.581 -15.552 -12.02 0
M  V30 1868 O 5.451 13.82 16.392 0
M  V30 1869 H 4.525 13.586 16.322 0
M  V30 1870 H 5.905 12.981 16.463 0
M  V30 1871 O 1.455 11.555 -13.092 0
M  V30 1872 H 1.302 12.313 -13.656 0
M  V30 1873 H 0.588 11.17 -12.966 0
M  V30 1874 O -5.255 -14.264 -7.411 0
M  V30 1875 H -5.467 -13.565 -8.029 0
M  V30 1876 H -5.013 -15.008 -7.964 0
M  V30 1877 O -0.188 -13.913 -5.903 0
M  V30 1878 H -0.697 -14.279 -5.18 0
M  V30 1879 H 0.482 -13.378 -5.478 0
M  V30 1880 O -4.931 -12.387 -15.493 0
M  V30 1881 H -4.422 -11.603 -15.701 0
M  V30 1882 H -4.449 -12.803 -14.778 0
M  V30 1883 O -2.923 -8.716 -8.181 0
M  V30 1884 H -3.583 -9.386 -8.002 0
M  V30 1885 H -3.428 -7.94 -8.424 0
M  V30 1886 O -5.798 -16.935 15.716 0
M  V30 1887 H -5.862 -16.014 15.466 0
M  V30 1888 H -5.047 -17.266 15.224 0
M  V30 1889 O 0.181 -16.757 -13.344 0
M  V30 1890 H -0.611 -16.866 -13.869 0
M  V30 1891 H 0.645 -16.029 -13.757 0
M  V30 1892 O -0.937 13.956 -12.588 0
M  V30 1893 H -1.485 14.647 -12.216 0
M  V30 1894 H -1.482 13.17 -12.549 0
M  V30 1895 O 4.282 13.901 -12.463 0
M  V30 1896 H 3.952 14.799 -12.476 0
M  V30 1897 H 4.508 13.741 -11.547 0
M  V30 1898 O -1.678 -11.887 12.058 0
M  V30 1899 H -1.365 -12.471 11.367 0
M  V30 1900 H -2.353 -12.391 12.512 0
M  V30 1901 O 2.024 15.518 -16.309 0
M  V30 1902 H 2.173 16.441 -16.514 0
M  V30 1903 H 1.866 15.504 -15.365 0
M  V30 1904 O 0.133 -8.532 -16.584 0
M  V30 1905 H -0.223 -8.383 -15.708 0
M  V30 1906 H -0.499 -8.119 -17.173 0
M  V30 1907 O -8.152 -5.734 -12.383 0
M  V30 1908 H -8.24 -4.898 -12.839 0
M  V30 1909 H -7.287 -6.057 -12.638 0
M  V30 1910 O 6.23 -7.812 -15.562 0
M  V30 1911 H 6.269 -7.454 -16.449 0
M  V30 1912 H 7.059 -8.278 -15.455 0
M  V30 1913 O -13.741 -16.637 -5.811 0
M  V30 1914 H -13.034 -16.002 -5.924 0
M  V30 1915 H -14.501 -16.227 -6.224 0
M  V30 1916 O 2.992 13.573 -9.685 0
M  V30 1917 H 2.979 14.53 -9.698 0
M  V30 1918 H 2.108 13.317 -9.945 0
M  V30 1919 O 2.67 9.139 -11.626 0
M  V30 1920 H 2.365 9.879 -12.15 0
M  V30 1921 H 2.935 9.528 -10.792 0
M  V30 1922 O 0.508 5.573 -2.377 0
M  V30 1923 H 0.882 4.919 -2.967 0
M  V30 1924 H -0.173 6.002 -2.895 0
M  V30 1925 O 5.501 6.897 -9.855 0
M  V30 1926 H 5.052 7.102 -10.675 0
M  V30 1927 H 4.799 6.648 -9.253 0
M  V30 1928 O -8.497 6.17 -2.031 0
M  V30 1929 H -8.548 7.121 -1.936 0
M  V30 1930 H -8.311 6.032 -2.96 0
M  V30 1931 O -10.113 10.431 -10.499 0
M  V30 1932 H -10.543 11.28 -10.403 0
M  V30 1933 H -10.829 9.796 -10.485 0
M  V30 1934 O 7.5 15.631 15.5 0
M  V30 1935 H 6.72 15.469 16.03 0
M  V30 1936 H 7.67 16.568 15.604 0
M  V30 1937 O 4.84 10.123 14.463 0
M  V30 1938 H 5.517 10.578 13.963 0
M  V30 1939 H 4.063 10.159 13.904 0
M  V30 1940 O 14.788 17.029 1.209 0
M  V30 1941 H 14.819 16.085 1.362 0
M  V30 1942 H 14.175 17.359 1.866 0
M  V30 1943 O -15.973 -14.021 -13.025 0
M  V30 1944 H -16.342 -14.698 -12.458 0
M  V30 1945 H -15.041 -14.232 -13.076 0
M  V30 1946 O 1.624 -9.005 -8.584 0
M  V30 1947 H 1.945 -8.231 -8.121 0
M  V30 1948 H 1.794 -8.821 -9.508 0
M  V30 1949 O -1.053 -8.122 -10.347 0
M  V30 1950 H -1.395 -8.425 -9.505 0
M  V30 1951 H -1.824 -7.808 -10.82 0
M  V30 1952 O -1.314 8.971 0.401 0
M  V30 1953 H -2.071 9.082 -0.174 0
M  V30 1954 H -0.565 9.233 -0.135 0
M  V30 1955 O -11.445 -15.273 -6.983 0
M  V30 1956 H -10.747 -15.825 -6.632 0
M  V30 1957 H -11.806 -15.776 -7.713 0
M  V30 1958 O -2.928 -12.758 -6.447 0
M  V30 1959 H -2.415 -12.845 -7.25 0
M  V30 1960 H -3.817 -13.005 -6.702 0
M  V30 1961 O -2.713 14.799 -9.037 0
M  V30 1962 H -3.106 13.952 -9.247 0
M  V30 1963 H -2.974 14.968 -8.132 0
M  V30 1964 O -3.543 11.733 -6.484 0
M  V30 1965 H -3.829 11.343 -7.31 0
M  V30 1966 H -2.701 11.317 -6.301 0
M  V30 1967 O 6.937 17.174 -14.396 0
M  V30 1968 H 7.069 16.264 -14.661 0
M  V30 1969 H 6.761 17.638 -15.214 0
M  V30 1970 O -9.099 -4.293 -9.982 0
M  V30 1971 H -9.271 -4.331 -10.922 0
M  V30 1972 H -9.135 -3.361 -9.769 0
M  V30 1973 O -8.05 -16.666 -7.677 0
M  V30 1974 H -8.04 -17.615 -7.798 0
M  V30 1975 H -7.707 -16.533 -6.793 0
M  V30 1976 O 12.648 -11.588 -8.312 0
M  V30 1977 H 12.326 -12.163 -9.005 0
M  V30 1978 H 11.857 -11.226 -7.912 0
M  V30 1979 O -9.341 -0.536 -2.892 0
M  V30 1980 H -10.05 -0.308 -3.494 0
M  V30 1981 H -9.503 -1.453 -2.667 0
M  V30 1982 O -0.453 -9.254 -6.761 0
M  V30 1983 H 0.175 -9.035 -7.449 0
M  V30 1984 H -1.309 -9.115 -7.165 0
M  V30 1985 O -1.567 -2.072 -7.137 0
M  V30 1986 H -1.275 -1.554 -7.887 0
M  V30 1987 H -0.87 -1.968 -6.488 0
M  V30 1988 O -6.774 -14.377 -11.98 0
M  V30 1989 H -5.985 -14.528 -11.459 0
M  V30 1990 H -7.198 -13.627 -11.561 0
M  V30 1991 O -7.82 -11.778 -11.119 0
M  V30 1992 H -8.223 -11.797 -10.25 0
M  V30 1993 H -7.088 -11.168 -11.031 0
M  V30 1994 O 8.172 -12.461 -12.934 0
M  V30 1995 H 7.918 -12.188 -13.816 0
M  V30 1996 H 8.175 -13.417 -12.971 0
M  V30 1997 O 14.229 2.827 -12.283 0
M  V30 1998 H 13.927 2.072 -12.787 0
M  V30 1999 H 14.493 2.462 -11.439 0
M  V30 2000 O -11.856 -14.68 -3.955 0
M  V30 2001 H -11.872 -14.653 -2.998 0
M  V30 2002 H -11.816 -13.761 -4.219 0
M  V30 2003 O 9.299 -11.621 -10.667 0
M  V30 2004 H 9.737 -12.351 -10.23 0
M  V30 2005 H 8.774 -12.032 -11.353 0
M  V30 2006 O 12.528 -7.807 16.567 0
M  V30 2007 H 12.204 -8.699 16.446 0
M  V30 2008 H 12.631 -7.466 15.679 0
M  V30 2009 O 12.681 -8.751 -12.127 0
M  V30 2010 H 12.437 -7.88 -12.441 0
M  V30 2011 H 12.538 -8.714 -11.181 0
M  V30 2012 O 14.054 5.009 -8.12 0
M  V30 2013 H 13.225 5.172 -8.569 0
M  V30 2014 H 14.718 5.089 -8.805 0
M  V30 2015 O 9.868 -2.941 -5.82 0
M  V30 2016 H 10.466 -3.659 -6.025 0
M  V30 2017 H 9.411 -2.766 -6.643 0
M  V30 2018 O -15.479 -2.05 -7.961 0
M  V30 2019 H -14.841 -1.498 -7.509 0
M  V30 2020 H -15.522 -2.848 -7.434 0
M  V30 2021 O 11.319 -5.276 -5.896 0
M  V30 2022 H 11.818 -5.806 -6.518 0
M  V30 2023 H 10.844 -5.915 -5.364 0
M  V30 2024 O 5.807 -1.946 -6.366 0
M  V30 2025 H 6.011 -2.711 -5.828 0
M  V30 2026 H 6.103 -1.2 -5.846 0
M  V30 2027 O 12.578 -5.208 -15.273 0
M  V30 2028 H 12.858 -5.128 -14.361 0
M  V30 2029 H 12.695 -6.135 -15.479 0
M  V30 2030 O -13.888 -5.03 5.124 0
M  V30 2031 H -14.326 -5.855 5.333 0
M  V30 2032 H -13.534 -5.162 4.245 0
M  V30 2033 O 14.069 -4.161 -9.014 0
M  V30 2034 H 14.155 -3.999 -8.075 0
M  V30 2035 H 14.831 -3.729 -9.402 0
M  V30 2036 O 9.849 4.443 -13.255 0
M  V30 2037 H 9.049 4.125 -12.837 0
M  V30 2038 H 10.503 4.441 -12.555 0
M  V30 2039 O 15.527 0.308 -4.677 0
M  V30 2040 H 14.89 -0.156 -4.134 0
M  V30 2041 H 16.227 -0.328 -4.823 0
M  V30 2042 O -11.796 1.838 -9.949 0
M  V30 2043 H -11.06 2.406 -10.174 0
M  V30 2044 H -12.209 2.265 -9.199 0
M  V30 2045 O 16.416 7.4 -7.875 0
M  V30 2046 H 16.437 7.217 -8.815 0
M  V30 2047 H 16.189 8.328 -7.816 0
M  V30 2048 O 7.007 5.601 1.404 0
M  V30 2049 H 7.56 4.871 1.684 0
M  V30 2050 H 6.197 5.186 1.105 0
M  V30 2051 O -15.889 6.56 -10.361 0
M  V30 2052 H -15.202 5.899 -10.445 0
M  V30 2053 H -15.448 7.389 -10.548 0
M  V30 2054 O 12.455 -4.925 2.474 0
M  V30 2055 H 12.077 -4.709 3.327 0
M  V30 2056 H 13.243 -5.429 2.682 0
M  V30 2057 O 15.943 9.933 -15.572 0
M  V30 2058 H 15.068 10.29 -15.722 0
M  V30 2059 H 16.061 9.978 -14.623 0
M  V30 2060 O 11.308 6.039 -4.487 0
M  V30 2061 H 11.287 6.587 -5.271 0
M  V30 2062 H 10.434 5.652 -4.441 0
M  V30 2063 O 9.459 8.627 -5.58 0
M  V30 2064 H 9.875 9.015 -4.81 0
M  V30 2065 H 8.613 9.069 -5.645 0
M  V30 2066 O -15.907 6.293 -6.245 0
M  V30 2067 H -16.354 6.729 -6.971 0
M  V30 2068 H -16.55 6.287 -5.537 0
M  V30 2069 O -8.511 8.685 -1.108 0
M  V30 2070 H -7.704 8.592 -0.601 0
M  V30 2071 H -8.763 9.601 -0.991 0
M  V30 2072 O 14.377 13.399 -8.175 0
M  V30 2073 H 14.505 14.314 -7.922 0
M  V30 2074 H 13.929 13.004 -7.427 0
M  V30 2075 O -14.769 -8.519 -6.723 0
M  V30 2076 H -14.113 -8.534 -7.42 0
M  V30 2077 H -14.384 -7.968 -6.042 0
M  V30 2078 O 15.578 -0.659 0.83 0
M  V30 2079 H 14.902 -0.824 1.487 0
M  V30 2080 H 15.54 0.285 0.678 0
M  V30 2081 O -14.858 -12.805 -3.909 0
M  V30 2082 H -14.877 -12.482 -4.809 0
M  V30 2083 H -14.063 -12.426 -3.534 0
M  V30 2084 O -6.529 -13.331 -2.521 0
M  V30 2085 H -6.536 -12.731 -1.775 0
M  V30 2086 H -5.78 -13.051 -3.048 0
M  V30 2087 O 5.017 5.156 -6.426 0
M  V30 2088 H 4.1 5.2 -6.698 0
M  V30 2089 H 4.982 4.906 -5.502 0
M  V30 2090 O -15.017 3.086 -7.265 0
M  V30 2091 H -15.58 2.777 -7.975 0
M  V30 2092 H -15.413 3.911 -6.986 0
M  V30 2093 O -9.895 -14.196 6.93 0
M  V30 2094 H -8.991 -14.245 6.618 0
M  V30 2095 H -10.148 -13.284 6.789 0
M  V30 2096 O -1.659 0.815 -6.164 0
M  V30 2097 H -1.337 0.362 -5.384 0
M  V30 2098 H -2.544 1.097 -5.929 0
M  V30 2099 O -9.241 -4.623 -4.703 0
M  V30 2100 H -9.698 -5.353 -4.284 0
M  V30 2101 H -9.94 -4.038 -4.995 0
M  V30 2102 O 15.988 -14.317 5.686 0
M  V30 2103 H 15.235 -14.156 6.254 0
M  V30 2104 H 16.704 -13.829 6.093 0
M  V30 2105 O 8.963 -5.185 -8.705 0
M  V30 2106 H 8.581 -4.308 -8.686 0
M  V30 2107 H 9.848 -5.068 -8.359 0
M  V30 2108 O -13.197 -8.756 -0.452 0
M  V30 2109 H -12.937 -8.234 -1.211 0
M  V30 2110 H -14.09 -9.038 -0.649 0
M  V30 2111 O -8.089 -8.622 -3.055 0
M  V30 2112 H -7.3 -8.85 -2.563 0
M  V30 2113 H -8.649 -9.395 -2.982 0
M  V30 2114 O -15.505 -4.609 0.11 0
M  V30 2115 H -15.818 -3.786 0.483 0
M  V30 2116 H -14.819 -4.348 -0.505 0
M  V30 2117 O -4.062 -1.598 -6.062 0
M  V30 2118 H -3.892 -2.091 -5.26 0
M  V30 2119 H -3.311 -1.789 -6.625 0
M  V30 2120 O 5.725 9.752 -1.85 0
M  V30 2121 H 6.384 10.292 -2.287 0
M  V30 2122 H 6.226 9.205 -1.245 0
M  V30 2123 O 14.891 3.589 -1.585 0
M  V30 2124 H 15.759 3.897 -1.845 0
M  V30 2125 H 14.288 4.045 -2.173 0
M  V30 2126 O -10.739 -1.353 3.179 0
M  V30 2127 H -10.228 -2.088 2.84 0
M  V30 2128 H -11.605 -1.462 2.785 0
M  V30 2129 O -15.519 -4.321 -4.135 0
M  V30 2130 H -15.722 -5.188 -3.783 0
M  V30 2131 H -15.233 -4.487 -5.033 0
M  V30 2132 O 12.699 15.018 -1.405 0
M  V30 2133 H 13.347 15.71 -1.536 0
M  V30 2134 H 13.142 14.218 -1.688 0
M  V30 2135 O -10.942 2.042 9.84 0
M  V30 2136 H -11.22 1.25 9.381 0
M  V30 2137 H -10.785 1.757 10.74 0
M  V30 2138 O -9.633 2.467 6.726 0
M  V30 2139 H -10.437 2.502 6.208 0
M  V30 2140 H -9.32 1.568 6.621 0
M  V30 2141 O -16.508 8.9 -3.925 0
M  V30 2142 H -16.278 9.357 -4.734 0
M  V30 2143 H -15.806 9.125 -3.315 0
M  V30 2144 O -11.51 7.982 -9.009 0
M  V30 2145 H -11.768 7.25 -8.449 0
M  V30 2146 H -12.024 8.722 -8.688 0
M  V30 2147 O 10.007 10.399 -3.2 0
M  V30 2148 H 10.65 10.324 -2.494 0
M  V30 2149 H 9.389 11.062 -2.892 0
M  V30 2150 O -14.288 8.465 1.525 0
M  V30 2151 H -14.893 8.115 0.871 0
M  V30 2152 H -13.697 7.737 1.718 0
M  V30 2153 O -14.251 1.735 -4.828 0
M  V30 2154 H -14.973 1.902 -4.223 0
M  V30 2155 H -14.541 2.114 -5.658 0
M  V30 2156 O -12.722 10.491 0.816 0
M  V30 2157 H -12.456 10.608 1.728 0
M  V30 2158 H -13.033 9.586 0.772 0
M  V30 2159 O -10.888 1.145 -5.896 0
M  V30 2160 H -11.338 1.846 -6.366 0
M  V30 2161 H -11.295 1.138 -5.029 0
M  V30 2162 O -16.303 1.495 -2.923 0
M  V30 2163 H -17.096 1.338 -3.434 0
M  V30 2164 H -16.406 2.385 -2.586 0
M  V30 2165 O -16.769 -8.429 -9.176 0
M  V30 2166 H -16.405 -8.484 -8.292 0
M  V30 2167 H -16.019 -8.218 -9.732 0
M  V30 2168 O -9.409 -1.535 -9.8 0
M  V30 2169 H -9.265 -0.842 -10.446 0
M  V30 2170 H -10.021 -1.153 -9.171 0
M  V30 2171 O -11.061 -0.328 -8.029 0
M  V30 2172 H -11.116 0.117 -7.183 0
M  V30 2173 H -11.622 0.189 -8.608 0
M  V30 2174 O 15.293 -2.808 -5.809 0
M  V30 2175 H 14.803 -2.489 -6.567 0
M  V30 2176 H 14.736 -2.601 -5.058 0
M  V30 2177 O 15.11 -8.362 6.592 0
M  V30 2178 H 15.156 -7.409 6.665 0
M  V30 2179 H 14.501 -8.628 7.28 0
M  V30 2180 O -16.035 -1.919 0.796 0
M  V30 2181 H -15.875 -1.52 -0.059 0
M  V30 2182 H -16.789 -1.444 1.145 0
M  V30 2183 O -7.181 -6.198 2.056 0
M  V30 2184 H -6.514 -6.31 2.733 0
M  V30 2185 H -7.248 -7.058 1.641 0
M  V30 2186 O 9.375 4.02 7.652 0
M  V30 2187 H 10.001 4.721 7.466 0
M  V30 2188 H 9.606 3.719 8.53 0
M  V30 2189 O 9.535 11.469 2.354 0
M  V30 2190 H 9.47 12.016 1.571 0
M  V30 2191 H 8.636 11.191 2.528 0
M  V30 2192 O 9.522 8.335 0.369 0
M  V30 2193 H 10.284 8.912 0.309 0
M  V30 2194 H 9.642 7.864 1.194 0
M  V30 2195 O 13.721 -1.349 2.833 0
M  V30 2196 H 14.162 -1.832 3.531 0
M  V30 2197 H 12.976 -1.901 2.593 0
M  V30 2198 O -10.821 0.325 -0.158 0
M  V30 2199 H -10.396 0.704 0.611 0
M  V30 2200 H -11.659 0.783 -0.219 0
M  V30 2201 O 15.473 5.768 -10.206 0
M  V30 2202 H 16.335 6.175 -10.288 0
M  V30 2203 H 15.187 5.626 -11.108 0
M  V30 2204 O 14.248 2.412 -6.592 0
M  V30 2205 H 14.66 1.838 -5.946 0
M  V30 2206 H 14.834 3.166 -6.652 0
M  V30 2207 O 11.713 9.937 1.589 0
M  V30 2208 H 12.261 10.652 1.266 0
M  V30 2209 H 10.94 10.371 1.95 0
M  V30 2210 O -15.706 2.101 1.21 0
M  V30 2211 H -16.581 1.748 1.048 0
M  V30 2212 H -15.766 2.5 2.078 0
M  V30 2213 O 16.794 -4.942 2.938 0
M  V30 2214 H 17.081 -5.778 2.57 0
M  V30 2215 H 16.595 -4.4 2.175 0
M  V30 2216 O 7.272 9.917 -8.323 0
M  V30 2217 H 6.844 10.481 -7.678 0
M  V30 2218 H 7.364 9.073 -7.88 0
M  V30 2219 O 4.925 15.091 0.561 0
M  V30 2220 H 4.128 15.382 1.004 0
M  V30 2221 H 4.747 15.233 -0.369 0
M  V30 2222 O -4.026 2.847 -3.364 0
M  V30 2223 H -3.827 3.782 -3.302 0
M  V30 2224 H -3.173 2.416 -3.313 0
M  V30 2225 O 12.283 4.319 8.676 0
M  V30 2226 H 12.125 3.377 8.737 0
M  V30 2227 H 12.523 4.463 7.761 0
M  V30 2228 O -12.472 5.959 -7.486 0
M  V30 2229 H -12.555 6.51 -6.708 0
M  V30 2230 H -13.367 5.677 -7.677 0
M  V30 2231 O 12.947 7.863 6.852 0
M  V30 2232 H 13.162 8.792 6.934 0
M  V30 2233 H 12.423 7.669 7.629 0
M  V30 2234 O -12.453 12.488 -6.897 0
M  V30 2235 H -11.524 12.302 -7.029 0
M  V30 2236 H -12.492 13.436 -6.77 0
M  V30 2237 O 10.129 14.454 -2.032 0
M  V30 2238 H 11.05 14.689 -1.919 0
M  V30 2239 H 9.706 15.268 -2.306 0
M  V30 2240 O -10.081 8.306 2.077 0
M  V30 2241 H -9.313 7.855 2.428 0
M  V30 2242 H -10.603 7.611 1.674 0
M  V30 2243 O 14.307 9.946 -10.209 0
M  V30 2244 H 14.95 10.094 -9.514 0
M  V30 2245 H 13.48 9.812 -9.746 0
M  V30 2246 O -14.253 8.881 -2.616 0
M  V30 2247 H -13.308 8.787 -2.491 0
M  V30 2248 H -14.513 9.554 -1.987 0
M  V30 2249 O 11.945 -9.996 7.527 0
M  V30 2250 H 12.502 -10.765 7.639 0
M  V30 2251 H 11.073 -10.354 7.36 0
M  V30 2252 O -13.973 -9.937 6.586 0
M  V30 2253 H -14.759 -10.433 6.357 0
M  V30 2254 H -13.81 -10.157 7.503 0
M  V30 2255 O -7.484 -9.001 1.098 0
M  V30 2256 H -7.284 -9.837 1.52 0
M  V30 2257 H -8.298 -9.161 0.621 0
M  V30 2258 O -15.709 -11.697 5.127 0
M  V30 2259 H -15.383 -11.17 4.397 0
M  V30 2260 H -16.625 -11.437 5.22 0
M  V30 2261 O 15.335 2.182 0.775 0
M  V30 2262 H 15.181 2.697 -0.017 0
M  V30 2263 H 15.024 2.74 1.488 0
M  V30 2264 O 4.625 -14.896 6.263 0
M  V30 2265 H 4.403 -14.192 5.654 0
M  V30 2266 H 4.676 -14.468 7.117 0
M  V30 2267 O -14.234 -3.991 7.971 0
M  V30 2268 H -13.302 -4.037 8.188 0
M  V30 2269 H -14.263 -4.086 7.019 0
M  V30 2270 O -11.808 1.133 -3.238 0
M  V30 2271 H -11.872 1.052 -2.287 0
M  V30 2272 H -12.716 1.168 -3.538 0
M  V30 2273 O 15.99 5.941 4.154 0
M  V30 2274 H 15.47 6.743 4.101 0
M  V30 2275 H 16.898 6.244 4.172 0
M  V30 2276 O 9.23 -0.953 -0.368 0
M  V30 2277 H 9.19 -0.065 -0.723 0
M  V30 2278 H 9.403 -0.831 0.565 0
M  V30 2279 O 11.351 2.82 5.434 0
M  V30 2280 H 10.919 2.743 6.285 0
M  V30 2281 H 11.667 1.937 5.244 0
M  V30 2282 O -5.994 -4.614 -6.114 0
M  V30 2283 H -5.05 -4.505 -6.234 0
M  V30 2284 H -6.336 -4.736 -7 0
M  V30 2285 O 10.461 -15.147 -2.347 0
M  V30 2286 H 9.752 -15.736 -2.092 0
M  V30 2287 H 11.046 -15.691 -2.875 0
M  V30 2288 O 7.977 13.663 0.818 0
M  V30 2289 H 8.101 14.047 1.686 0
M  V30 2290 H 7.389 14.27 0.369 0
M  V30 2291 O 15.632 -6.479 -15.484 0
M  V30 2292 H 15.066 -6.216 -14.758 0
M  V30 2293 H 15.048 -6.933 -16.092 0
M  V30 2294 O 15.168 -2.703 4.908 0
M  V30 2295 H 15.516 -2.045 5.508 0
M  V30 2296 H 15.748 -3.457 5.014 0
M  V30 2297 O -14.826 -0.492 -1.694 0
M  V30 2298 H -14.464 -0.956 -2.45 0
M  V30 2299 H -15.548 0.024 -2.053 0
M  V30 2300 O 2.693 7.474 1.233 0
M  V30 2301 H 3.228 8.197 1.561 0
M  V30 2302 H 3.153 7.172 0.45 0
M  V30 2303 O 15.226 10.849 1.086 0
M  V30 2304 H 14.766 10.025 0.927 0
M  V30 2305 H 15.478 10.808 2.009 0
M  V30 2306 O -11.409 10.876 -3.479 0
M  V30 2307 H -11.311 9.926 -3.416 0
M  V30 2308 H -10.74 11.145 -4.109 0
M  V30 2309 O -6.834 2.673 4.72 0
M  V30 2310 H -6.527 3.57 4.851 0
M  V30 2311 H -7.706 2.657 5.114 0
M  V30 2312 O -7.316 -1.294 1.509 0
M  V30 2313 H -6.932 -0.566 1.998 0
M  V30 2314 H -7.603 -0.903 0.683 0
M  V30 2315 O -16.54 9.91 -0.661 0
M  V30 2316 H -17.196 9.948 -1.357 0
M  V30 2317 H -17.021 10.135 0.135 0
M  V30 2318 O 13.205 5.145 6.329 0
M  V30 2319 H 13.183 6.056 6.619 0
M  V30 2320 H 12.673 5.133 5.533 0
M  V30 2321 O -14.259 14.648 5.007 0
M  V30 2322 H -13.866 13.781 4.913 0
M  V30 2323 H -14.026 15.106 4.2 0
M  V30 2324 O -11.506 8.055 -1.669 0
M  V30 2325 H -10.837 8.147 -0.991 0
M  V30 2326 H -11.534 7.116 -1.852 0
M  V30 2327 O -6.445 -5.241 6.208 0
M  V30 2328 H -5.759 -4.806 5.701 0
M  V30 2329 H -6.196 -5.098 7.121 0
M  V30 2330 O 9.041 -10.035 7.229 0
M  V30 2331 H 8.135 -10.285 7.05 0
M  V30 2332 H 8.971 -9.257 7.782 0
M  V30 2333 O -14.252 -1.714 9.412 0
M  V30 2334 H -14.432 -2.493 8.887 0
M  V30 2335 H -14.198 -1.001 8.775 0
M  V30 2336 O -4.145 16.706 10.911 0
M  V30 2337 H -4.857 16.377 11.459 0
M  V30 2338 H -4.371 16.419 10.026 0
M  V30 2339 O -10.913 -13.517 3.544 0
M  V30 2340 H -11.459 -12.738 3.439 0
M  V30 2341 H -11.122 -13.839 4.421 0
M  V30 2342 O -8.54 -13.27 10.335 0
M  V30 2343 H -7.995 -12.772 10.944 0
M  V30 2344 H -8.606 -12.712 9.56 0
M  V30 2345 O 13.496 -9.861 10.446 0
M  V30 2346 H 12.639 -9.847 10.871 0
M  V30 2347 H 13.489 -9.099 9.866 0
M  V30 2348 O 14.113 -6.602 -5.358 0
M  V30 2349 H 13.715 -5.964 -4.764 0
M  V30 2350 H 13.61 -7.404 -5.219 0
M  V30 2351 O -9.639 -1.675 11.834 0
M  V30 2352 H -10.174 -0.902 11.656 0
M  V30 2353 H -8.949 -1.36 12.417 0
M  V30 2354 O -9.945 -2.386 6.191 0
M  V30 2355 H -10.888 -2.336 6.029 0
M  V30 2356 H -9.553 -2.396 5.318 0
M  V30 2357 O 9.318 -3.402 -1.418 0
M  V30 2358 H 9.377 -2.509 -1.077 0
M  V30 2359 H 10.17 -3.791 -1.222 0
M  V30 2360 O -12.579 7.493 -5.194 0
M  V30 2361 H -11.857 7.664 -4.59 0
M  V30 2362 H -12.659 8.298 -5.707 0
M  V30 2363 O 14.65 -2.598 -1.626 0
M  V30 2364 H 15.401 -2.241 -1.152 0
M  V30 2365 H 14.813 -3.541 -1.661 0
M  V30 2366 O -12.25 0.417 7.576 0
M  V30 2367 H -13.173 0.186 7.475 0
M  V30 2368 H -12.112 1.13 6.953 0
M  V30 2369 O -4.15 2.195 6.447 0
M  V30 2370 H -3.95 2.051 7.372 0
M  V30 2371 H -5.089 2.022 6.375 0
M  V30 2372 O -7.528 -0.038 -0.848 0
M  V30 2373 H -7.777 0.725 -0.325 0
M  V30 2374 H -8.114 -0.011 -1.604 0
M  V30 2375 O 15.956 -10.161 4.804 0
M  V30 2376 H 16.067 -9.671 3.989 0
M  V30 2377 H 15.718 -9.498 5.452 0
M  V30 2378 O 16.612 -1.424 6.88 0
M  V30 2379 H 16.303 -2.167 7.398 0
M  V30 2380 H 16.272 -0.655 7.337 0
M  V30 2381 O -9.669 4.234 -0.681 0
M  V30 2382 H -9.928 3.639 -1.385 0
M  V30 2383 H -9.222 4.953 -1.127 0
M  V30 2384 O -13.944 4.367 -1.01 0
M  V30 2385 H -13.531 4.849 -1.726 0
M  V30 2386 H -13.52 3.509 -1.022 0
M  V30 2387 O -16.529 4.424 -2.099 0
M  V30 2388 H -15.787 4.222 -1.528 0
M  V30 2389 H -16.152 4.944 -2.808 0
M  V30 2390 O 16.149 8.969 3.311 0
M  V30 2391 H 15.819 8.69 4.165 0
M  V30 2392 H 15.638 8.462 2.68 0
M  V30 2393 O 9.002 -3.234 2.908 0
M  V30 2394 H 8.565 -3.707 2.2 0
M  V30 2395 H 9.048 -2.329 2.6 0
M  V30 2396 O -16.256 3.455 11.307 0
M  V30 2397 H -16.176 3.523 10.356 0
M  V30 2398 H -16.112 4.347 11.624 0
M  V30 2399 O -14.671 6.005 -3.597 0
M  V30 2400 H -14.58 6.06 -4.548 0
M  V30 2401 H -14.499 6.895 -3.288 0
M  V30 2402 O -7.628 -3.143 9.742 0
M  V30 2403 H -7.259 -2.328 10.082 0
M  V30 2404 H -8.009 -3.572 10.507 0
M  V30 2405 O 15.416 10.099 -2.525 0
M  V30 2406 H 16.07 9.548 -2.954 0
M  V30 2407 H 14.786 10.305 -3.216 0
M  V30 2408 O -13.722 6.431 8.015 0
M  V30 2409 H -13.376 6.837 7.221 0
M  V30 2410 H -13.115 5.715 8.203 0
M  V30 2411 O -12.64 6.412 3.172 0
M  V30 2412 H -11.96 6.683 3.789 0
M  V30 2413 H -12.158 6.1 2.406 0
M  V30 2414 O -7.995 7.797 12.56 0
M  V30 2415 H -8.39 7.669 13.422 0
M  V30 2416 H -7.438 7.029 12.434 0
M  V30 2417 O -15.455 10.521 2.808 0
M  V30 2418 H -14.972 9.91 2.252 0
M  V30 2419 H -16.166 9.997 3.178 0
M  V30 2420 O 5.81 -5.03 3.509 0
M  V30 2421 H 5.49 -4.365 4.119 0
M  V30 2422 H 6.182 -4.53 2.782 0
M  V30 2423 O 7.063 -4.129 -3.01 0
M  V30 2424 H 7.908 -3.847 -2.659 0
M  V30 2425 H 6.762 -4.802 -2.399 0
M  V30 2426 O -13.209 -4.554 2.392 0
M  V30 2427 H -13.797 -4.74 1.66 0
M  V30 2428 H -13.231 -3.602 2.481 0
M  V30 2429 O -15.466 -11.693 9.914 0
M  V30 2430 H -15.044 -11.225 10.635 0
M  V30 2431 H -16.115 -11.077 9.575 0
M  V30 2432 O -12.44 -14.668 -1.039 0
M  V30 2433 H -13.044 -14.935 -0.347 0
M  V30 2434 H -11.576 -14.921 -0.714 0
M  V30 2435 O 6.326 -7.551 14.789 0
M  V30 2436 H 6.044 -7.066 14.014 0
M  V30 2437 H 7.226 -7.811 14.595 0
M  V30 2438 O -6.48 -7.948 8.526 0
M  V30 2439 H -7.431 -7.867 8.454 0
M  V30 2440 H -6.175 -7.057 8.696 0
M  V30 2441 O -13.283 -7.066 -2.605 0
M  V30 2442 H -13.296 -6.915 -3.55 0
M  V30 2443 H -14.18 -6.887 -2.321 0
M  V30 2444 O -9.242 -5.057 6.324 0
M  V30 2445 H -8.295 -5.194 6.277 0
M  V30 2446 H -9.348 -4.106 6.307 0
M  V30 2447 O -12.125 -7.526 -12.251 0
M  V30 2448 H -11.871 -8.281 -12.781 0
M  V30 2449 H -11.482 -7.502 -11.542 0
M  V30 2450 O 11.954 1.706 8.594 0
M  V30 2451 H 11.377 1.886 9.336 0
M  V30 2452 H 11.392 1.269 7.954 0
M  V30 2453 O 14.388 -7.118 2.442 0
M  V30 2454 H 14.295 -7.961 2.885 0
M  V30 2455 H 15.169 -7.218 1.897 0
M  V30 2456 O 10.596 6.883 5.666 0
M  V30 2457 H 11.326 7.45 5.914 0
M  V30 2458 H 9.832 7.277 6.088 0
M  V30 2459 O -15.853 -6.202 8.457 0
M  V30 2460 H -16.363 -6.193 9.268 0
M  V30 2461 H -15.25 -5.464 8.545 0
M  V30 2462 O -8.868 4.733 14.353 0
M  V30 2463 H -9.122 5.567 14.749 0
M  V30 2464 H -9.398 4.079 14.809 0
M  V30 2465 O -7.31 -10.469 -15.905 0
M  V30 2466 H -7.311 -11.35 -16.279 0
M  V30 2467 H -7.854 -9.955 -16.502 0
M  V30 2468 O 8.296 7.97 6.748 0
M  V30 2469 H 7.689 7.351 7.153 0
M  V30 2470 H 8.511 8.588 7.447 0
M  V30 2471 O 16.005 4.72 6.562 0
M  V30 2472 H 15.158 4.279 6.632 0
M  V30 2473 H 15.846 5.452 5.966 0
M  V30 2474 O -15.838 3.739 8.471 0
M  V30 2475 H -15.027 4.148 8.17 0
M  V30 2476 H -16.491 3.994 7.82 0
M  V30 2477 O -11.532 -0.943 14.807 0
M  V30 2478 H -11.103 -1.131 15.642 0
M  V30 2479 H -11.145 -1.566 14.192 0
M  V30 2480 O -13.59 12.064 4.31 0
M  V30 2481 H -14.268 11.669 3.763 0
M  V30 2482 H -12.794 11.576 4.097 0
M  V30 2483 O 13.398 3.183 13.749 0
M  V30 2484 H 13.917 3.843 14.208 0
M  V30 2485 H 13.986 2.841 13.076 0
M  V30 2486 O 6.489 3.656 7.59 0
M  V30 2487 H 7.364 3.381 7.864 0
M  V30 2488 H 6.585 4.585 7.379 0
M  V30 2489 O 9.515 1.332 -11.68 0
M  V30 2490 H 9.248 2.163 -11.287 0
M  V30 2491 H 10.455 1.275 -11.505 0
M  V30 2492 O 10.134 -1.176 -3.949 0
M  V30 2493 H 10.629 -1.748 -3.362 0
M  V30 2494 H 10.027 -1.689 -4.75 0
M  V30 2495 O 15.673 -4.418 14.017 0
M  V30 2496 H 14.804 -4.328 14.408 0
M  V30 2497 H 15.843 -3.569 13.611 0
M  V30 2498 O -10.389 8.838 8.805 0
M  V30 2499 H -11.286 9.151 8.928 0
M  V30 2500 H -9.944 9.057 9.623 0
M  V30 2501 O 2.936 11.244 12.7 0
M  V30 2502 H 3.286 12.06 13.057 0
M  V30 2503 H 1.986 11.352 12.74 0
M  V30 2504 O 14.006 8.159 12.252 0
M  V30 2505 H 13.091 7.96 12.453 0
M  V30 2506 H 14.067 8.071 11.301 0
M  V30 2507 O -15.001 0.764 8.189 0
M  V30 2508 H -14.876 1.713 8.187 0
M  V30 2509 H -15.899 0.641 8.495 0
M  V30 2510 O 17.121 1.801 5.952 0
M  V30 2511 H 17.208 2.564 6.524 0
M  V30 2512 H 16.224 1.85 5.623 0
M  V30 2513 O 10.517 2.005 1.903 0
M  V30 2514 H 10.106 2.865 1.814 0
M  V30 2515 H 10.595 1.873 2.847 0
M  V30 2516 O -17.106 -4.729 5.594 0
M  V30 2517 H -17.044 -4.866 4.649 0
M  V30 2518 H -16.273 -5.049 5.939 0
M  V30 2519 O -13.593 -15.581 4.338 0
M  V30 2520 H -12.988 -16.157 3.872 0
M  V30 2521 H -14.462 -15.901 4.098 0
M  V30 2522 O -2.847 -6.917 6.225 0
M  V30 2523 H -2.587 -6.573 7.079 0
M  V30 2524 H -3.009 -6.138 5.692 0
M  V30 2525 O -10.928 -5.481 3.877 0
M  V30 2526 H -11.739 -5.346 3.386 0
M  V30 2527 H -11.15 -5.243 4.777 0
M  V30 2528 O -13.607 -9.08 -16.775 0
M  V30 2529 H -14.141 -9.101 -15.982 0
M  V30 2530 H -12.74 -9.366 -16.488 0
M  V30 2531 O 9.541 -4.318 5.259 0
M  V30 2532 H 9.311 -4.156 4.345 0
M  V30 2533 H 10.493 -4.224 5.288 0
M  V30 2534 O 12.154 -16.417 7.168 0
M  V30 2535 H 11.269 -16.708 7.386 0
M  V30 2536 H 12.66 -16.569 7.966 0
M  V30 2537 O 15.806 -3.621 9.767 0
M  V30 2538 H 16.141 -4.468 10.062 0
M  V30 2539 H 16.306 -2.978 10.27 0
M  V30 2540 O -10.757 -3.695 14.846 0
M  V30 2541 H -10.792 -4.408 14.208 0
M  V30 2542 H -10.656 -4.134 15.691 0
M  V30 2543 O 12.728 -1.625 6.573 0
M  V30 2544 H 12.37 -2.457 6.266 0
M  V30 2545 H 12.492 -1.589 7.5 0
M  V30 2546 O 8.518 -7.517 8.476 0
M  V30 2547 H 7.808 -7.7 7.86 0
M  V30 2548 H 8.759 -6.607 8.3 0
M  V30 2549 O -11.615 -3.089 10.747 0
M  V30 2550 H -12.32 -2.487 10.984 0
M  V30 2551 H -10.847 -2.753 11.209 0
M  V30 2552 O -9.327 -3.603 2.002 0
M  V30 2553 H -8.483 -3.346 2.373 0
M  V30 2554 H -9.283 -4.558 1.946 0
M  V30 2555 O -3.947 0.876 11.064 0
M  V30 2556 H -4.228 1.53 10.423 0
M  V30 2557 H -3.028 0.713 10.854 0
M  V30 2558 O -11.345 -5.281 12.487 0
M  V30 2559 H -12.2 -5.701 12.578 0
M  V30 2560 H -11.437 -4.711 11.724 0
M  V30 2561 O -8.047 0.044 13.326 0
M  V30 2562 H -8.323 0.95 13.465 0
M  V30 2563 H -7.682 -0.227 14.168 0
M  V30 2564 O -5.941 -1.086 11.644 0
M  V30 2565 H -5.164 -0.528 11.649 0
M  V30 2566 H -6.642 -0.526 11.978 0
M  V30 2567 O 8.765 3.191 14.295 0
M  V30 2568 H 7.85 3.168 14.576 0
M  V30 2569 H 8.951 4.12 14.159 0
M  V30 2570 O 12.588 0.346 4.769 0
M  V30 2571 H 12.926 -0.081 3.983 0
M  V30 2572 H 12.532 -0.355 5.419 0
M  V30 2573 O -6.348 13.026 14.312 0
M  V30 2574 H -6.516 12.084 14.302 0
M  V30 2575 H -5.992 13.216 13.444 0
M  V30 2576 O -9.559 -0.481 7.945 0
M  V30 2577 H -9.487 -1.189 7.304 0
M  V30 2578 H -10.49 -0.261 7.956 0
M  V30 2579 O 16.098 -9.028 1.844 0
M  V30 2580 H 16.81 -8.391 1.898 0
M  V30 2581 H 16.448 -9.734 1.301 0
M  V30 2582 O 13.15 11.443 11.979 0
M  V30 2583 H 12.231 11.495 12.243 0
M  V30 2584 H 13.41 12.353 11.833 0
M  V30 2585 O -15.68 3.585 3.526 0
M  V30 2586 H -15.556 4.457 3.901 0
M  V30 2587 H -16.304 3.158 4.113 0
M  V30 2588 O -1.037 9.978 9.799 0
M  V30 2589 H -0.775 9.141 10.183 0
M  V30 2590 H -0.665 10.637 10.385 0
M  V30 2591 O -8.671 12.574 7.107 0
M  V30 2592 H -7.771 12.515 6.786 0
M  V30 2593 H -8.99 11.672 7.093 0
M  V30 2594 O -16.838 -5.482 11.035 0
M  V30 2595 H -17.485 -5.896 11.606 0
M  V30 2596 H -16.134 -5.214 11.625 0
M  V30 2597 O -12.072 -9.658 -14.099 0
M  V30 2598 H -12.551 -10.212 -13.483 0
M  V30 2599 H -11.59 -10.274 -14.65 0
M  V30 2600 O -2.541 -14.391 1.429 0
M  V30 2601 H -2.967 -13.838 2.085 0
M  V30 2602 H -1.77 -14.741 1.874 0
M  V30 2603 O 5.631 -12.525 8.304 0
M  V30 2604 H 6.047 -12.81 9.118 0
M  V30 2605 H 4.708 -12.417 8.531 0
M  V30 2606 O 7.773 -1.218 13.342 0
M  V30 2607 H 8.327 -1.375 14.106 0
M  V30 2608 H 7.004 -1.77 13.486 0
M  V30 2609 O -4.875 4.444 -14.246 0
M  V30 2610 H -5.345 4.584 -13.424 0
M  V30 2611 H -5.282 5.053 -14.862 0
M  V30 2612 O -9.21 -7.13 8.647 0
M  V30 2613 H -9.652 -7.048 7.801 0
M  V30 2614 H -9.175 -6.236 8.986 0
M  V30 2615 O 9.859 0.065 -14.032 0
M  V30 2616 H 10.164 0.853 -14.481 0
M  V30 2617 H 9.543 0.379 -13.185 0
M  V30 2618 O 15.938 -1.904 14.773 0
M  V30 2619 H 15.682 -2.081 15.678 0
M  V30 2620 H 16.895 -1.908 14.79 0
M  V30 2621 O 9.207 -8.035 11.251 0
M  V30 2622 H 9.195 -7.696 10.356 0
M  V30 2623 H 8.54 -7.524 11.71 0
M  V30 2624 O 13.322 -2.706 11.142 0
M  V30 2625 H 13.989 -3.095 10.577 0
M  V30 2626 H 13.81 -2.371 11.894 0
M  V30 2627 O 15.318 2.241 11.873 0
M  V30 2628 H 15.383 1.766 11.045 0
M  V30 2629 H 16.094 2.801 11.891 0
M  V30 2630 O -9.772 2.785 16.096 0
M  V30 2631 H -9.948 3.055 16.998 0
M  V30 2632 H -10.587 2.377 15.805 0
M  V30 2633 O 3.748 -8.531 14.762 0
M  V30 2634 H 4.699 -8.542 14.657 0
M  V30 2635 H 3.596 -7.962 15.517 0
M  V30 2636 O -13.027 3.932 13.843 0
M  V30 2637 H -12.273 4.02 13.26 0
M  V30 2638 H -13.68 3.463 13.322 0
M  V30 2639 O -4.723 -3.867 11.75 0
M  V30 2640 H -5.522 -4.08 12.232 0
M  V30 2641 H -4.842 -2.958 11.476 0
M  V30 2642 O -7.405 0.397 -13.99 0
M  V30 2643 H -6.489 0.121 -13.987 0
M  V30 2644 H -7.519 0.861 -13.16 0
M  V30 2645 O 10.845 -6.368 1.076 0
M  V30 2646 H 10.98 -7.06 1.723 0
M  V30 2647 H 11.484 -5.694 1.308 0
M  V30 2648 O -15.349 12.068 -15.238 0
M  V30 2649 H -15.863 12.374 -15.985 0
M  V30 2650 H -14.5 12.5 -15.337 0
M  V30 2651 O -16.431 7.242 -14.421 0
M  V30 2652 H -17.043 7.574 -13.764 0
M  V30 2653 H -15.854 7.982 -14.608 0
M  V30 2654 O 15.646 4.7 15.015 0
M  V30 2655 H 16.01 5.509 14.654 0
M  V30 2656 H 16.034 4.63 15.887 0
M  V30 2657 O -16.685 4.587 -15.902 0
M  V30 2658 H -15.802 4.244 -16.042 0
M  V30 2659 H -16.549 5.484 -15.596 0
M  V30 2660 O 14.327 2.338 5.305 0
M  V30 2661 H 13.87 2.806 6.003 0
M  V30 2662 H 13.822 1.533 5.185 0
M  V30 2663 O -12.281 11.851 -13.912 0
M  V30 2664 H -12.23 11.423 -13.057 0
M  V30 2665 H -12.027 11.171 -14.536 0
M  V30 2666 O -2.308 11.886 12.853 0
M  V30 2667 H -2.676 12.611 13.358 0
M  V30 2668 H -2.669 11.997 11.974 0
M  V30 2669 O -12.827 -2.405 5.515 0
M  V30 2670 H -13.115 -3.275 5.238 0
M  V30 2671 H -13.606 -1.856 5.429 0
M  V30 2672 O -6.701 1.5 -10.718 0
M  V30 2673 H -5.922 2.051 -10.8 0
M  V30 2674 H -6.374 0.676 -10.357 0
M  V30 2675 O -4.983 -6.514 15.092 0
M  V30 2676 H -5.917 -6.398 14.919 0
M  V30 2677 H -4.577 -6.519 14.225 0
M  V30 2678 O 14.668 -0.424 12.75 0
M  V30 2679 H 14.986 0.478 12.704 0
M  V30 2680 H 15.331 -0.885 13.264 0
M  V30 2681 O 11.115 -6.299 12.644 0
M  V30 2682 H 10.856 -6.025 13.524 0
M  V30 2683 H 10.302 -6.6 12.238 0
M  V30 2684 O 12.781 -2.082 -7.102 0
M  V30 2685 H 12.17 -1.573 -7.634 0
M  V30 2686 H 12.306 -2.253 -6.288 0
M  V30 2687 O -4.498 -4.633 -16.229 0
M  V30 2688 H -4.733 -5.121 -17.018 0
M  V30 2689 H -5.244 -4.054 -16.074 0
M  V30 2690 O 3.238 6.865 -13.513 0
M  V30 2691 H 3.222 7.48 -12.78 0
M  V30 2692 H 2.465 7.089 -14.031 0
M  V30 2693 O -16.426 -1.856 11.065 0
M  V30 2694 H -16.224 -1.308 11.823 0
M  V30 2695 H -15.574 -2.034 10.665 0
M  V30 2696 O 15.094 -5.582 7.687 0
M  V30 2697 H 15.814 -5.356 7.098 0
M  V30 2698 H 15.064 -4.862 8.317 0
M  V30 2699 O -12.307 -6.784 8.907 0
M  V30 2700 H -11.889 -5.922 8.9 0
M  V30 2701 H -13.245 -6.596 8.871 0
M  V30 2702 O 4.632 -5.819 12.769 0
M  V30 2703 H 4.197 -5.692 13.612 0
M  V30 2704 H 4.548 -4.975 12.326 0
M  V30 2705 O 9.589 -5.106 -14.546 0
M  V30 2706 H 10.369 -4.615 -14.803 0
M  V30 2707 H 9.848 -6.025 -14.62 0
M  V30 2708 O -14.022 1.772 11.921 0
M  V30 2709 H -14.454 1.054 12.385 0
M  V30 2710 H -14.72 2.404 11.753 0
M  V30 2711 O 9.303 -0.231 11.208 0
M  V30 2712 H 9.496 0.681 10.992 0
M  V30 2713 H 8.753 -0.182 11.989 0
M  V30 2714 O 7.435 -2.262 8.659 0
M  V30 2715 H 6.802 -1.819 9.224 0
M  V30 2716 H 7.982 -1.557 8.313 0
M  V30 2717 O -14.153 8.671 16.487 0
M  V30 2718 H -14.92 8.961 15.995 0
M  V30 2719 H -13.772 7.975 15.951 0
M  V30 2720 O -9.211 0.223 4.874 0
M  V30 2721 H -9.661 -0.262 4.183 0
M  V30 2722 H -8.759 -0.449 5.384 0
M  V30 2723 O -13.286 6.42 -13.87 0
M  V30 2724 H -14.187 6.245 -13.598 0
M  V30 2725 H -13.212 7.374 -13.855 0
M  V30 2726 O 12.737 -1.297 -15.259 0
M  V30 2727 H 12.39 -1.133 -16.136 0
M  V30 2728 H 12.101 -1.888 -14.856 0
M  V30 2729 O 12.583 -3.572 -12.029 0
M  V30 2730 H 12.825 -3.085 -11.241 0
M  V30 2731 H 12.01 -2.977 -12.512 0
M  V30 2732 O -11.463 -6.561 -15.609 0
M  V30 2733 H -11.767 -7.452 -15.437 0
M  V30 2734 H -12.115 -6.197 -16.208 0
M  V30 2735 O 10.416 -12.888 9.236 0
M  V30 2736 H 9.971 -13.203 10.023 0
M  V30 2737 H 11.345 -12.895 9.466 0
M  V30 2738 O 14.374 -5.84 -13.18 0
M  V30 2739 H 14.311 -6.218 -12.303 0
M  V30 2740 H 14.395 -4.894 -13.033 0
M  V30 2741 O 16.146 1.941 -16.21 0
M  V30 2742 H 16.522 2.79 -15.977 0
M  V30 2743 H 15.201 2.093 -16.224 0
M  V30 2744 O 3.863 16.867 -11.541 0
M  V30 2745 H 3.071 16.56 -11.982 0
M  V30 2746 H 3.768 16.567 -10.637 0
M  V30 2747 O 16.332 0.098 9.449 0
M  V30 2748 H 15.428 -0.187 9.312 0
M  V30 2749 H 16.631 -0.409 10.204 0
M  V30 2750 O 13.708 7.339 -6.336 0
M  V30 2751 H 13.712 7.953 -7.07 0
M  V30 2752 H 13.824 6.48 -6.741 0
M  V30 2753 O -4.601 9.064 13.434 0
M  V30 2754 H -3.952 8.668 14.016 0
M  V30 2755 H -4.286 8.864 12.552 0
M  V30 2756 O 8.438 10.502 -14.282 0
M  V30 2757 H 9.35 10.704 -14.075 0
M  V30 2758 H 7.973 10.613 -13.452 0
M  V30 2759 O -15.948 -2.148 -12.746 0
M  V30 2760 H -15.549 -1.411 -13.208 0
M  V30 2761 H -16.069 -2.817 -13.419 0
M  V30 2762 O 15.101 -2.517 -15.953 0
M  V30 2763 H 14.159 -2.424 -16.098 0
M  V30 2764 H 15.171 -2.979 -15.118 0
M  V30 2765 O -15.397 16.256 -9.931 0
M  V30 2766 H -15.175 15.711 -10.686 0
M  V30 2767 H -15.776 17.049 -10.311 0
M  V30 2768 O 12.416 11.545 -6.176 0
M  V30 2769 H 12.228 11.992 -5.351 0
M  V30 2770 H 11.714 11.823 -6.765 0
M  V30 2771 O -13.306 -2.193 12.74 0
M  V30 2772 H -14.029 -2.816 12.664 0
M  V30 2773 H -12.979 -2.312 13.632 0
M  V30 2774 O -16.625 -7.576 -12.719 0
M  V30 2775 H -16.014 -7.318 -13.409 0
M  V30 2776 H -16.455 -8.508 -12.584 0
M  V30 2777 O -15.175 -5.402 -9.469 0
M  V30 2778 H -14.787 -6.141 -9.938 0
M  V30 2779 H -15.852 -5.072 -10.06 0
M  V30 2780 O -9.259 -9.655 15.641 0
M  V30 2781 H -10.065 -10.151 15.784 0
M  V30 2782 H -9.537 -8.884 15.146 0
M  V30 2783 O -9.558 -6.758 -8.297 0
M  V30 2784 H -9.431 -5.822 -8.456 0
M  V30 2785 H -9.355 -6.873 -7.368 0
M  V30 2786 O 14.557 -9.186 -7.24 0
M  V30 2787 H 14.039 -9.906 -7.601 0
M  V30 2788 H 15.123 -8.912 -7.962 0
M  V30 2789 O -16.989 -11.535 -12.207 0
M  V30 2790 H -17.365 -11.313 -13.058 0
M  V30 2791 H -16.677 -12.434 -12.309 0
M  V30 2792 O 16.593 -2.793 -9.668 0
M  V30 2793 H 17.425 -2.64 -9.221 0
M  V30 2794 H 16.772 -3.515 -10.27 0
M  V30 2795 O -13.492 -1.324 -5.916 0
M  V30 2796 H -13.809 -0.537 -5.473 0
M  V30 2797 H -13.365 -1.961 -5.213 0
M  V30 2798 O 10.166 8.079 -8.101 0
M  V30 2799 H 10.105 8.178 -7.151 0
M  V30 2800 H 9.451 7.483 -8.326 0
M  V30 2801 O 5.842 -3.412 16.175 0
M  V30 2802 H 5.334 -2.883 16.791 0
M  V30 2803 H 5.699 -2.995 15.325 0
M  V30 2804 O -12.321 1.814 15.711 0
M  V30 2805 H -12.821 2.228 15.007 0
M  V30 2806 H -12.047 0.972 15.347 0
M  V30 2807 O -12.854 -0.229 -12.305 0
M  V30 2808 H -13.252 -0.582 -11.51 0
M  V30 2809 H -13.436 0.484 -12.569 0
M  V30 2810 O -11.527 0.875 12.432 0
M  V30 2811 H -11.764 0.254 13.121 0
M  V30 2812 H -12.353 1.295 12.193 0
M  V30 2813 O -5.221 5.746 -10.506 0
M  V30 2814 H -4.67 6.463 -10.821 0
M  V30 2815 H -6.114 6.018 -10.72 0
M  V30 2816 O -17.101 1.34 -12.115 0
M  V30 2817 H -16.213 1.332 -12.474 0
M  V30 2818 H -17.64 0.942 -12.799 0
M  V30 2819 O -12.997 -6.84 -5.262 0
M  V30 2820 H -13.464 -6.249 -5.853 0
M  V30 2821 H -12.341 -7.264 -5.816 0
M  V30 2822 O 10.808 -2.251 9.841 0
M  V30 2823 H 11.523 -2.418 10.455 0
M  V30 2824 H 10.277 -1.579 10.268 0
M  V30 2825 O 4.226 11.579 -14.028 0
M  V30 2826 H 3.287 11.548 -13.842 0
M  V30 2827 H 4.56 12.274 -13.461 0
M  V30 2828 O 10.873 9.991 -12.355 0
M  V30 2829 H 10.755 10.882 -12.023 0
M  V30 2830 H 10.987 9.456 -11.57 0
M  V30 2831 O -16.199 -0.339 13.319 0
M  V30 2832 H -15.77 -0.817 14.028 0
M  V30 2833 H -16.446 0.5 13.71 0
M  V30 2834 O 11.387 7.454 -11.808 0
M  V30 2835 H 11.607 6.797 -11.148 0
M  V30 2836 H 11.929 7.226 -12.564 0
M  V30 2837 O -13.373 4.652 -10.709 0
M  V30 2838 H -12.651 5.098 -11.153 0
M  V30 2839 H -13.449 3.812 -11.161 0
M  V30 2840 O 13.204 6.852 -13.845 0
M  V30 2841 H 13.164 6.933 -14.798 0
M  V30 2842 H 13.583 5.987 -13.693 0
M  V30 2843 O -5.241 5.216 13.109 0
M  V30 2844 H -5.195 5.448 12.182 0
M  V30 2845 H -4.626 4.489 13.205 0
M  V30 2846 O 16.023 7.148 13.666 0
M  V30 2847 H 15.299 7.568 13.2 0
M  V30 2848 H 16.378 7.838 14.227 0
M  V30 2849 O 11.709 1.232 -7.431 0
M  V30 2850 H 11.822 0.353 -7.069 0
M  V30 2851 H 12.252 1.792 -6.876 0
M  V30 2852 O -15.702 -10.107 -15.353 0
M  V30 2853 H -16.489 -10.292 -14.84 0
M  V30 2854 H -15.201 -10.922 -15.325 0
M  V30 2855 O -14.632 -7.144 -14.436 0
M  V30 2856 H -13.831 -7.141 -13.911 0
M  V30 2857 H -14.353 -6.841 -15.3 0
M  V30 2858 O -16.424 -4.686 -14.588 0
M  V30 2859 H -15.927 -5.405 -14.198 0
M  V30 2860 H -17.136 -5.115 -15.062 0
M  V30 2861 O 0.191 13.868 -9.684 0
M  V30 2862 H -0.717 13.708 -9.427 0
M  V30 2863 H 0.266 14.822 -9.715 0
M  V30 2864 O 6.571 2.731 -7.114 0
M  V30 2865 H 6.697 2.305 -6.266 0
M  V30 2866 H 5.9 3.394 -6.952 0
M  V30 2867 O 16.104 -12.457 14.166 0
M  V30 2868 H 17.007 -12.267 14.423 0
M  V30 2869 H 15.615 -11.672 14.41 0
M  V30 2870 O -9.403 -16.098 14.712 0
M  V30 2871 H -9.333 -17.005 14.416 0
M  V30 2872 H -9.256 -16.141 15.657 0
M  V30 2873 O -6.292 -3.794 0.664 0
M  V30 2874 H -6.82 -4.509 1.019 0
M  V30 2875 H -6.752 -2.999 0.935 0
M  V30 2876 O 8.042 6.588 -8.812 0
M  V30 2877 H 7.896 5.735 -8.403 0
M  V30 2878 H 7.178 6.854 -9.128 0
M  V30 2879 O 9.003 3.971 -7.369 0
M  V30 2880 H 9.192 4.132 -6.444 0
M  V30 2881 H 8.11 3.625 -7.374 0
M  V30 2882 O 11.266 2.155 15.086 0
M  V30 2883 H 11.969 2.558 14.577 0
M  V30 2884 H 10.472 2.603 14.794 0
M  V30 2885 O -13.995 -7.43 12.01 0
M  V30 2886 H -14.475 -8.258 11.999 0
M  V30 2887 H -13.217 -7.596 11.477 0
M  V30 2888 O -6.752 3.566 -7.274 0
M  V30 2889 H -6.671 3.302 -8.19 0
M  V30 2890 H -7.577 4.05 -7.236 0
M  V30 2891 O -1.62 -12.602 -0.377 0
M  V30 2892 H -0.714 -12.399 -0.145 0
M  V30 2893 H -1.914 -13.201 0.309 0
M  V30 2894 O 6.234 11.153 -15.884 0
M  V30 2895 H 6.902 11.001 -15.215 0
M  V30 2896 H 5.404 11.091 -15.413 0
M  V30 2897 O 6.476 -0.987 -8.927 0
M  V30 2898 H 6.06 -0.266 -9.399 0
M  V30 2899 H 6.223 -0.853 -8.013 0
M  V30 2900 O -16.755 2.717 -9.452 0
M  V30 2901 H -17.283 3.468 -9.723 0
M  V30 2902 H -16.623 2.215 -10.256 0
M  V30 2903 O -12.896 -4.047 -0.941 0
M  V30 2904 H -12.243 -3.372 -0.753 0
M  V30 2905 H -12.448 -4.872 -0.757 0
M  V30 2906 O -8.555 9.94 16.276 0
M  V30 2907 H -7.922 9.536 16.87 0
M  V30 2908 H -8.03 10.247 15.538 0
M  V30 2909 O 6.611 7.441 -6.386 0
M  V30 2910 H 6.348 6.546 -6.602 0
M  V30 2911 H 6.846 7.405 -5.459 0
M  V30 2912 O -1.482 5.857 -11.715 0
M  V30 2913 H -1.794 5.623 -10.84 0
M  V30 2914 H -0.729 6.426 -11.557 0
M  V30 2915 O 6.896 2.204 -2.483 0
M  V30 2916 H 6.449 3.04 -2.347 0
M  V30 2917 H 7.793 2.447 -2.713 0
M  V30 2918 O -11.682 -4.094 8.438 0
M  V30 2919 H -11.827 -3.694 9.295 0
M  V30 2920 H -10.916 -3.64 8.087 0
M  V30 2921 O -13.176 9.569 -7.412 0
M  V30 2922 H -13.011 10.494 -7.226 0
M  V30 2923 H -13.883 9.576 -8.057 0
M  V30 2924 O 9.512 -0.595 -16.844 0
M  V30 2925 H 9.817 0.304 -16.969 0
M  V30 2926 H 9.34 -0.662 -15.905 0
M  V30 2927 O 10.533 16.533 0.115 0
M  V30 2928 H 10.139 16.14 0.894 0
M  V30 2929 H 11.261 15.952 -0.105 0
M  V30 2930 O 12.631 9.376 -7.958 0
M  V30 2931 H 11.819 8.932 -8.201 0
M  V30 2932 H 12.36 10.045 -7.33 0
M  V30 2933 O 13.192 16.069 -15.163 0
M  V30 2934 H 12.767 15.439 -15.745 0
M  V30 2935 H 14.006 15.641 -14.898 0
M  V30 2936 O 7.497 15.111 -5.764 0
M  V30 2937 H 7.395 15.375 -6.679 0
M  V30 2938 H 7.7 15.925 -5.302 0
M  V30 2939 O 15.551 11.948 -5.443 0
M  V30 2940 H 15.272 12.157 -4.552 0
M  V30 2941 H 15.79 12.793 -5.824 0
M  V30 2942 O -15.603 12.91 1.54 0
M  V30 2943 H -15.245 12.07 1.829 0
M  V30 2944 H -15.26 13.025 0.654 0
M  V30 2945 O -9.726 15.651 -5.042 0
M  V30 2946 H -9.455 15.276 -4.204 0
M  V30 2947 H -9.168 15.219 -5.689 0
M  V30 2948 O 15.914 -16.405 -5.339 0
M  V30 2949 H 16.625 -16.832 -5.817 0
M  V30 2950 H 16.352 -15.761 -4.782 0
M  V30 2951 O -12.281 11.013 6.695 0
M  V30 2952 H -12.377 11.714 7.339 0
M  V30 2953 H -12.719 11.345 5.912 0
M  V30 2954 O 13.312 -15.89 -5.99 0
M  V30 2955 H 14.252 -16.014 -5.861 0
M  V30 2956 H 13.22 -14.963 -6.209 0
M  V30 2957 O 4.824 -17.11 -5.185 0
M  V30 2958 H 5.367 -16.441 -4.769 0
M  V30 2959 H 5.01 -17.023 -6.12 0
M  V30 2960 O -3.354 12.256 -14.035 0
M  V30 2961 H -4.038 11.589 -13.985 0
M  V30 2962 H -3.628 12.927 -13.409 0
M  V30 2963 O -8.539 10.858 -5.422 0
M  V30 2964 H -8.057 11.563 -4.99 0
M  V30 2965 H -7.886 10.174 -5.567 0
M  V30 2966 O 1.692 10.226 -4.465 0
M  V30 2967 H 1.452 9.353 -4.775 0
M  V30 2968 H 2.203 10.603 -5.181 0
M  V30 2969 O 11.621 16.941 -4.349 0
M  V30 2970 H 12.132 16.139 -4.458 0
M  V30 2971 H 11.789 17.443 -5.147 0
M  V30 2972 O -15.208 12.742 -1.41 0
M  V30 2973 H -14.273 12.549 -1.476 0
M  V30 2974 H -15.636 12.008 -1.85 0
M  V30 2975 O -13.19 -16.683 -14.055 0
M  V30 2976 H -12.676 -17.467 -14.245 0
M  V30 2977 H -13.703 -16.914 -13.28 0
M  V30 2978 O -7.94 -16.886 -1.863 0
M  V30 2979 H -8.339 -16.454 -2.618 0
M  V30 2980 H -8.173 -16.331 -1.119 0
M  V30 2981 O 5.841 16.47 -2.05 0
M  V30 2982 H 5.997 17.116 -2.739 0
M  V30 2983 H 5.682 15.652 -2.521 0
M  V30 2984 O -5.244 -10.157 -7.678 0
M  V30 2985 H -6.039 -10.019 -8.192 0
M  V30 2986 H -5.53 -10.684 -6.931 0
M  V30 2987 O -10.456 -12.337 -4.808 0
M  V30 2988 H -10.036 -12.531 -3.971 0
M  V30 2989 H -9.78 -12.513 -5.463 0
M  V30 2990 O 15.249 -3.005 -12.71 0
M  V30 2991 H 16.078 -2.681 -12.356 0
M  V30 2992 H 14.578 -2.505 -12.245 0
M  V30 2993 O 9.726 -16.54 -10.344 0
M  V30 2994 H 9.318 -17.311 -10.739 0
M  V30 2995 H 10.207 -16.883 -9.59 0
M  V30 2996 O 13.043 1.013 -13.77 0
M  V30 2997 H 12.886 1.796 -14.298 0
M  V30 2998 H 12.804 0.285 -14.343 0
M  V30 2999 O -12.479 16.967 -8.861 0
M  V30 3000 H -12.101 16.786 -9.722 0
M  V30 3001 H -13.394 16.698 -8.94 0
M  V30 3002 O -13.86 -10.593 -9.683 0
M  V30 3003 H -14.188 -11.491 -9.651 0
M  V30 3004 H -12.95 -10.679 -9.967 0
M  V30 3005 O -15.122 -5.482 -6.758 0
M  V30 3006 H -16.066 -5.409 -6.615 0
M  V30 3007 H -15.033 -5.627 -7.7 0
M  V30 3008 O -15.027 10.338 -9.895 0
M  V30 3009 H -15.724 10.455 -10.541 0
M  V30 3010 H -15.12 11.085 -9.304 0
M  V30 3011 O -12.088 3.236 5.822 0
M  V30 3012 H -12.627 3.978 5.549 0
M  V30 3013 H -12.214 2.582 5.135 0
M  V30 3014 O -10.233 14.664 6.12 0
M  V30 3015 H -9.645 14.041 6.548 0
M  V30 3016 H -10.318 14.337 5.225 0
M  V30 3017 O -6.716 10.814 2.366 0
M  V30 3018 H -7.136 11.116 1.561 0
M  V30 3019 H -6.018 11.45 2.525 0
M  V30 3020 O -11.289 9.701 -15.552 0
M  V30 3021 H -11.654 9.636 -16.435 0
M  V30 3022 H -10.413 10.063 -15.68 0
M  V30 3023 O 15.972 14.322 -0.293 0
M  V30 3024 H 16.683 13.858 0.15 0
M  V30 3025 H 16.376 14.681 -1.084 0
M  V30 3026 O 14.929 12.893 -2.914 0
M  V30 3027 H 15.286 13.635 -2.425 0
M  V30 3028 H 15.215 12.123 -2.422 0
M  V30 3029 O -11.364 10.25 3.484 0
M  V30 3030 H -10.654 10.643 3.992 0
M  V30 3031 H -10.962 9.496 3.052 0
M  V30 3032 O -15.663 10.774 -6.424 0
M  V30 3033 H -15.207 11.297 -5.764 0
M  V30 3034 H -15.686 11.335 -7.199 0
M  V30 3035 O -16.569 -14.85 -3.7 0
M  V30 3036 H -15.984 -14.108 -3.848 0
M  V30 3037 H -16.43 -15.086 -2.782 0
M  V30 3038 O 1.839 14.959 -4.186 0
M  V30 3039 H 2.557 14.659 -3.629 0
M  V30 3040 H 2.253 15.161 -5.025 0
M  V30 3041 O 10.814 -11.2 -6.199 0
M  V30 3042 H 9.954 -11.057 -5.803 0
M  V30 3043 H 11.368 -11.487 -5.473 0
M  V30 3044 O -12.467 -11.983 -2.038 0
M  V30 3045 H -12.262 -11.74 -1.135 0
M  V30 3046 H -12.711 -12.907 -1.988 0
M  V30 3047 O 12.857 -12.272 -3.742 0
M  V30 3048 H 13.19 -12.47 -4.617 0
M  V30 3049 H 13.281 -12.915 -3.173 0
M  V30 3050 O 14.689 -5.306 -2.334 0
M  V30 3051 H 13.756 -5.42 -2.154 0
M  V30 3052 H 15.019 -6.194 -2.467 0
M  V30 3053 O 10.697 -13.928 -9.626 0
M  V30 3054 H 10.345 -14.804 -9.787 0
M  V30 3055 H 11.597 -13.968 -9.948 0
M  V30 3056 O -10.215 -7.055 14.34 0
M  V30 3057 H -10.334 -6.682 13.467 0
M  V30 3058 H -10.925 -7.691 14.429 0
M  V30 3059 O -9.08 -15.56 -4.427 0
M  V30 3060 H -9.89 -15.053 -4.491 0
M  V30 3061 H -9.362 -16.472 -4.491 0
M  V30 3062 O 11.148 -10.65 -2.139 0
M  V30 3063 H 10.708 -11.296 -1.587 0
M  V30 3064 H 11.331 -11.116 -2.954 0
M  V30 3065 O -7.932 -13.048 -5.667 0
M  V30 3066 H -8.215 -13.777 -5.116 0
M  V30 3067 H -7.023 -12.892 -5.41 0
M  V30 3068 O 16.501 -11.861 -2.513 0
M  V30 3069 H 17.42 -11.949 -2.763 0
M  V30 3070 H 16.118 -11.309 -3.195 0
M  V30 3071 O -9.279 -7.832 -5.854 0
M  V30 3072 H -8.87 -8.031 -5.012 0
M  V30 3073 H -9.601 -8.676 -6.17 0
M  V30 3074 O -13.142 -14.16 -12.975 0
M  V30 3075 H -13.091 -14.958 -13.501 0
M  V30 3076 H -12.409 -14.229 -12.363 0
M  V30 3077 O -10.3 -10.336 -7.408 0
M  V30 3078 H -10.502 -10.56 -8.316 0
M  V30 3079 H -9.632 -10.97 -7.147 0
M  V30 3080 O -5.279 -11.14 -4.781 0
M  V30 3081 H -4.747 -11.667 -4.184 0
M  V30 3082 H -4.98 -10.242 -4.639 0
M  V30 3083 O 13.101 11.537 4.72 0
M  V30 3084 H 13.116 11.229 5.626 0
M  V30 3085 H 14.02 11.543 4.453 0
M  V30 3086 O -7.206 13.114 -4.568 0
M  V30 3087 H -6.313 12.857 -4.794 0
M  V30 3088 H -7.177 13.282 -3.626 0
M  V30 3089 O -13.436 -16.882 -2.657 0
M  V30 3090 H -13.148 -16.116 -2.161 0
M  V30 3091 H -13.12 -16.725 -3.547 0
M  V30 3092 O 15.928 -10.377 -4.942 0
M  V30 3093 H 15.436 -9.942 -5.638 0
M  V30 3094 H 16.77 -10.592 -5.343 0
M  V30 3095 O -12.544 3.658 2.427 0
M  V30 3096 H -13.286 3.156 2.089 0
M  V30 3097 H -12.939 4.435 2.823 0
M  V30 3098 O -8.235 -13.539 3.571 0
M  V30 3099 H -9.145 -13.806 3.446 0
M  V30 3100 H -7.785 -14.339 3.842 0
M  V30 3101 O -10.877 6.52 7.429 0
M  V30 3102 H -10.614 5.79 7.99 0
M  V30 3103 H -10.731 7.299 7.966 0
M  V30 3104 O 11.837 -6.906 -8.281 0
M  V30 3105 H 11.263 -7.457 -8.813 0
M  V30 3106 H 12.682 -6.934 -8.73 0
M  V30 3107 O 14.623 7.686 1.427 0
M  V30 3108 H 15.153 6.952 1.118 0
M  V30 3109 H 13.783 7.58 0.98 0
M  V30 3110 O 15.828 8.18 6.111 0
M  V30 3111 H 16.538 8.619 6.579 0
M  V30 3112 H 15.053 8.335 6.651 0
M  V30 3113 O -15.837 12.778 -8.587 0
M  V30 3114 H -16.531 13.235 -8.112 0
M  V30 3115 H -15.795 13.219 -9.435 0
M  V30 3116 O -14.707 14.393 -11.816 0
M  V30 3117 H -14.024 14.274 -12.476 0
M  V30 3118 H -15.348 13.709 -12.008 0
M  V30 3119 O -7.454 14.462 9.012 0
M  V30 3120 H -7.718 13.797 8.376 0
M  V30 3121 H -7.83 14.163 9.841 0
M  V30 3122 O 2.731 -8.732 -11.142 0
M  V30 3123 H 2.707 -9.394 -11.833 0
M  V30 3124 H 3.648 -8.705 -10.867 0
M  V30 3125 O 10.474 -12.262 2.252 0
M  V30 3126 H 10.544 -13.204 2.101 0
M  V30 3127 H 11.257 -11.895 1.841 0
M  V30 3128 O -14.143 -14.405 1.523 0
M  V30 3129 H -14.898 -14.804 1.955 0
M  V30 3130 H -13.453 -14.416 2.186 0
M  V30 3131 O -12.239 -8.151 -7.842 0
M  V30 3132 H -11.633 -7.678 -8.412 0
M  V30 3133 H -11.871 -9.033 -7.781 0
M  V30 3134 O -10.249 -6.723 1.183 0
M  V30 3135 H -10.146 -6.705 2.135 0
M  V30 3136 H -10.399 -7.645 0.975 0
M  V30 3137 O 12.356 -4.535 5.604 0
M  V30 3138 H 13.287 -4.542 5.825 0
M  V30 3139 H 12.077 -5.445 5.709 0
M  V30 3140 O 16.431 -12.641 -7.631 0
M  V30 3141 H 17.061 -12.439 -6.939 0
M  V30 3142 H 16.686 -12.076 -8.361 0
M  V30 3143 O -13.479 -7.803 2.157 0
M  V30 3144 H -13.23 -7.932 1.242 0
M  V30 3145 H -12.652 -7.633 2.609 0
M  V30 3146 O -9.743 -9.409 -0.639 0
M  V30 3147 H -9.775 -9.14 -1.557 0
M  V30 3148 H -10.619 -9.751 -0.458 0
M  V30 3149 O 14.488 -11.985 -11.345 0
M  V30 3150 H 14.088 -11.167 -11.642 0
M  V30 3151 H 15.419 -11.883 -11.546 0
M  V30 3152 O -14.168 -13.148 -7.571 0
M  V30 3153 H -14.575 -13.996 -7.751 0
M  V30 3154 H -13.245 -13.353 -7.417 0
M  V30 3155 O 11.474 13.194 3.542 0
M  V30 3156 H 12.024 12.701 4.151 0
M  V30 3157 H 10.735 12.613 3.361 0
M  V30 3158 O 16.528 15.162 -2.793 0
M  V30 3159 H 17.234 15.093 -3.436 0
M  V30 3160 H 16.399 16.103 -2.678 0
M  V30 3161 O -8.355 -16.13 10.633 0
M  V30 3162 H -9.248 -16.475 10.651 0
M  V30 3163 H -8.466 -15.182 10.557 0
M  V30 3164 O -4.741 5.055 8.179 0
M  V30 3165 H -5.629 5.041 7.821 0
M  V30 3166 H -4.184 5.272 7.431 0
M  V30 3167 O -10.964 -9.823 -3.552 0
M  V30 3168 H -11.664 -10.251 -3.059 0
M  V30 3169 H -10.644 -10.498 -4.15 0
M  V30 3170 O 7.819 8.5 10.47 0
M  V30 3171 H 7.548 9.182 9.856 0
M  V30 3172 H 7.036 7.963 10.593 0
M  V30 3173 O 15.71 12.461 3.237 0
M  V30 3174 H 16.318 12.681 2.531 0
M  V30 3175 H 15.052 13.155 3.213 0
M  V30 3176 O -5.317 -14.663 0.033 0
M  V30 3177 H -6.222 -14.915 -0.149 0
M  V30 3178 H -5.188 -13.855 -0.463 0
M  V30 3179 O 8.403 -10.377 -5.254 0
M  V30 3180 H 8.245 -9.599 -5.788 0
M  V30 3181 H 7.841 -10.26 -4.488 0
M  V30 3182 O 12.516 -14.413 5.225 0
M  V30 3183 H 12.531 -15.12 5.87 0
M  V30 3184 H 11.76 -13.88 5.471 0
M  V30 3185 O -13.565 11.69 15.105 0
M  V30 3186 H -13.923 10.807 15.193 0
M  V30 3187 H -13.861 11.984 14.243 0
M  V30 3188 O -4.759 14.424 2.282 0
M  V30 3189 H -5.345 15.17 2.412 0
M  V30 3190 H -4.72 14.311 1.333 0
M  V30 3191 O 16.375 -5.319 -6.345 0
M  V30 3192 H 15.702 -5.971 -6.149 0
M  V30 3193 H 15.957 -4.479 -6.159 0
M  V30 3194 O 10.843 -8.378 3.675 0
M  V30 3195 H 10.453 -9.028 3.09 0
M  V30 3196 H 11.519 -8.859 4.152 0
M  V30 3197 O -8.047 12.695 0.094 0
M  V30 3198 H -8.805 12.113 0.143 0
M  V30 3199 H -7.726 12.595 -0.803 0
M  V30 3200 O 13.875 -13.074 -6.374 0
M  V30 3201 H 13.332 -12.668 -7.05 0
M  V30 3202 H 14.76 -12.758 -6.556 0
M  V30 3203 O -14.96 -10.088 3.011 0
M  V30 3204 H -15.289 -10.427 2.178 0
M  V30 3205 H -14.459 -9.308 2.772 0
M  V30 3206 O -16.245 12.264 13.281 0
M  V30 3207 H -15.872 12.981 13.795 0
M  V30 3208 H -15.609 12.115 12.581 0
M  V30 3209 O -7.855 -16.005 1.524 0
M  V30 3210 H -7.097 -15.806 2.074 0
M  V30 3211 H -8.335 -16.675 2.01 0
M  V30 3212 O 15.865 -11.613 0.059 0
M  V30 3213 H 16.013 -11.871 -0.851 0
M  V30 3214 H 15.464 -12.382 0.464 0
M  V30 3215 O 15.552 -14.465 1.014 0
M  V30 3216 H 15.368 -15.403 0.978 0
M  V30 3217 H 16.368 -14.399 1.508 0
M  V30 3218 O -16.536 -14.901 13.899 0
M  V30 3219 H -17.044 -15.7 14.044 0
M  V30 3220 H -17.139 -14.191 14.115 0
M  V30 3221 O -9.536 -12.493 0.201 0
M  V30 3222 H -8.778 -12.032 0.559 0
M  V30 3223 H -10.291 -12.05 0.588 0
M  V30 3224 O -10.652 -6.501 -2.792 0
M  V30 3225 H -11.595 -6.548 -2.634 0
M  V30 3226 H -10.444 -7.319 -3.242 0
M  V30 3227 O 11.414 6.917 12.942 0
M  V30 3228 H 11.14 7.486 13.662 0
M  V30 3229 H 10.721 7.006 12.288 0
M  V30 3230 O -11.679 8.501 11.698 0
M  V30 3231 H -11.397 7.635 11.403 0
M  V30 3232 H -12.201 8.844 10.972 0
M  V30 3233 O -13.034 -1.769 1.759 0
M  V30 3234 H -12.626 -2.025 0.931 0
M  V30 3235 H -13.908 -1.467 1.512 0
M  V30 3236 O -7.284 0.982 7.75 0
M  V30 3237 H -7.946 0.292 7.699 0
M  V30 3238 H -7.785 1.788 7.874 0
M  V30 3239 O -12.58 1.025 4.206 0
M  V30 3240 H -13.115 0.257 4.007 0
M  V30 3241 H -11.849 0.975 3.589 0
M  V30 3242 O -15.712 9.734 7.221 0
M  V30 3243 H -14.966 9.527 6.658 0
M  V30 3244 H -15.665 10.683 7.342 0
M  V30 3245 O 7.832 12.145 15.121 0
M  V30 3246 H 7.394 12.015 14.28 0
M  V30 3247 H 7.307 11.643 15.745 0
M  V30 3248 O 15.81 6.5 8.861 0
M  V30 3249 H 15.771 5.861 8.15 0
M  V30 3250 H 16.497 6.172 9.441 0
M  V30 3251 O -3.415 -11.13 3.119 0
M  V30 3252 H -3.636 -10.199 3.152 0
M  V30 3253 H -3.94 -11.476 2.398 0
M  V30 3254 O -16.395 15.44 6.945 0
M  V30 3255 H -17.138 15.803 6.464 0
M  V30 3256 H -15.878 14.984 6.281 0
M  V30 3257 O 6.317 16.706 2.145 0
M  V30 3258 H 5.827 15.9 1.985 0
M  V30 3259 H 6.122 16.93 3.055 0
M  V30 3260 O 12.984 -15.895 16.45 0
M  V30 3261 H 13.6 -15.865 15.718 0
M  V30 3262 H 12.825 -16.828 16.593 0
M  V30 3263 O -11.709 13.539 1.246 0
M  V30 3264 H -11.725 13.161 0.367 0
M  V30 3265 H -11.166 14.323 1.161 0
M  V30 3266 O -7.385 14.971 4.79 0
M  V30 3267 H -8.187 15.091 5.298 0
M  V30 3268 H -7.688 14.825 3.894 0
M  V30 3269 O -7.975 -10.872 8.366 0
M  V30 3270 H -8.156 -10.984 7.432 0
M  V30 3271 H -7.105 -11.251 8.489 0
M  V30 3272 O 9.214 14.182 6.743 0
M  V30 3273 H 8.896 13.29 6.6 0
M  V30 3274 H 8.667 14.726 6.176 0
M  V30 3275 O 11.942 17.294 12.296 0
M  V30 3276 H 12.337 17.378 13.164 0
M  V30 3277 H 12.045 16.368 12.075 0
M  V30 3278 O -13.722 12.063 12.193 0
M  V30 3279 H -12.774 11.937 12.14 0
M  V30 3280 H -14.055 11.731 11.359 0
M  V30 3281 O -15.111 -13.391 -0.615 0
M  V30 3282 H -14.772 -13.784 0.19 0
M  V30 3283 H -15.956 -13.819 -0.754 0
M  V30 3284 O -15.851 17.361 3.331 0
M  V30 3285 H -15.229 16.723 2.98 0
M  V30 3286 H -16.543 16.831 3.724 0
M  V30 3287 O 8.024 13.471 11.142 0
M  V30 3288 H 7.794 13.964 10.355 0
M  V30 3289 H 8.364 12.639 10.814 0
M  V30 3290 O 12.577 -11.254 4.035 0
M  V30 3291 H 13.479 -11.251 3.713 0
M  V30 3292 H 12.072 -11.658 3.329 0
M  V30 3293 O 14.025 -17.057 -2.452 0
M  V30 3294 H 14.327 -16.152 -2.388 0
M  V30 3295 H 13.308 -17.027 -3.085 0
M  V30 3296 O -11.724 -11.026 4.683 0
M  V30 3297 H -12.578 -10.595 4.654 0
M  V30 3298 H -11.585 -11.221 5.61 0
M  V30 3299 O -7.195 -11.673 1.991 0
M  V30 3300 H -7.586 -12.493 2.29 0
M  V30 3301 H -6.787 -11.302 2.774 0
M  V30 3302 O -16.305 -1.821 -4.728 0
M  V30 3303 H -17.089 -2.219 -5.107 0
M  V30 3304 H -15.701 -2.553 -4.6 0
M  V30 3305 O 12.936 -15.81 2.842 0
M  V30 3306 H 12.536 -15.148 2.279 0
M  V30 3307 H 13.085 -15.359 3.673 0
M  V30 3308 O -11.946 -11.016 0.897 0
M  V30 3309 H -12.822 -10.791 0.584 0
M  V30 3310 H -11.759 -10.367 1.576 0
M  V30 3311 O -15.291 -7.318 6.066 0
M  V30 3312 H -15.545 -6.943 6.91 0
M  V30 3313 H -14.944 -8.183 6.283 0
M  V30 3314 O -10.974 -2.518 -0.263 0
M  V30 3315 H -10.388 -2.643 0.483 0
M  V30 3316 H -10.807 -1.621 -0.552 0
M  V30 3317 O 4.652 13.63 10.935 0
M  V30 3318 H 4.676 13.94 11.84 0
M  V30 3319 H 4.803 14.414 10.408 0
M  V30 3320 O 8.818 -16.19 2.606 0
M  V30 3321 H 9.114 -17.101 2.586 0
M  V30 3322 H 7.946 -16.213 2.212 0
M  V30 3323 O -10.419 15.876 1.228 0
M  V30 3324 H -10.964 16.216 0.518 0
M  V30 3325 H -10.469 16.546 1.91 0
M  V30 3326 O 13.642 -0.503 9 0
M  V30 3327 H 13.122 0.293 8.892 0
M  V30 3328 H 13.148 -1.03 9.628 0
M  V30 3329 O -8.375 2.004 0.771 0
M  V30 3330 H -8.508 2.804 0.263 0
M  V30 3331 H -7.746 2.252 1.448 0
M  V30 3332 O 16.006 13.331 -14.685 0
M  V30 3333 H 16.532 13.828 -15.312 0
M  V30 3334 H 15.592 12.645 -15.209 0
M  V30 3335 O -15.58 12.629 7.525 0
M  V30 3336 H -14.884 12.434 8.152 0
M  V30 3337 H -15.708 13.575 7.593 0
M  V30 3338 O -12.2 15.58 10.413 0
M  V30 3339 H -12.645 16.382 10.139 0
M  V30 3340 H -11.834 15.22 9.606 0
M  V30 3341 O -8.907 11.127 4.351 0
M  V30 3342 H -8.053 11.269 3.944 0
M  V30 3343 H -8.738 10.499 5.052 0
M  V30 3344 O 8.501 -13.48 14.076 0
M  V30 3345 H 9.112 -12.76 14.234 0
M  V30 3346 H 7.636 -13.097 14.22 0
M  V30 3347 O 12.676 -11.93 15.739 0
M  V30 3348 H 13.338 -11.675 15.096 0
M  V30 3349 H 12.355 -12.778 15.43 0
M  V30 3350 O 13.91 -7.611 9.011 0
M  V30 3351 H 13.129 -7.211 9.393 0
M  V30 3352 H 14.442 -6.871 8.72 0
M  V30 3353 O -8.331 11.004 10.54 0
M  V30 3354 H -7.858 10.892 11.365 0
M  V30 3355 H -7.801 10.535 9.894 0
M  V30 3356 O 6.538 -16.798 5.172 0
M  V30 3357 H 7.335 -16.282 5.289 0
M  V30 3358 H 5.833 -16.22 5.465 0
M  V30 3359 O 16.29 -10.015 9.051 0
M  V30 3360 H 15.445 -9.718 9.389 0
M  V30 3361 H 16.475 -9.426 8.319 0
M  V30 3362 O -11.193 -16.331 3.112 0
M  V30 3363 H -11.032 -15.395 2.989 0
M  V30 3364 H -10.551 -16.601 3.769 0
M  V30 3365 O -11.148 -11.733 7.439 0
M  V30 3366 H -11.138 -10.833 7.764 0
M  V30 3367 H -11.955 -12.107 7.793 0
M  V30 3368 O 12.354 -7.334 5.986 0
M  V30 3369 H 11.932 -7.972 6.561 0
M  V30 3370 H 13.231 -7.687 5.837 0
M  V30 3371 O 8.316 -15.013 -12.403 0
M  V30 3372 H 8.335 -15.514 -13.218 0
M  V30 3373 H 8.753 -15.577 -11.765 0
M  V30 3374 O 15.921 -12.287 10.631 0
M  V30 3375 H 16.876 -12.235 10.664 0
M  V30 3376 H 15.632 -11.374 10.617 0
M  V30 3377 O 13.875 -6.972 12.993 0
M  V30 3378 H 13.073 -6.588 12.638 0
M  V30 3379 H 14.329 -6.239 13.409 0
M  V30 3380 O 16.144 12.339 6.115 0
M  V30 3381 H 16.044 12.808 5.286 0
M  V30 3382 H 17.063 12.467 6.354 0
M  V30 3383 O 15.119 -14.713 11.94 0
M  V30 3384 H 15.506 -13.867 11.712 0
M  V30 3385 H 15.596 -15.347 11.403 0
M  V30 3386 O -14.923 -14.037 6.475 0
M  V30 3387 H -15.154 -13.358 5.84 0
M  V30 3388 H -14.37 -14.645 5.985 0
M  V30 3389 O 12.588 -13.758 13.215 0
M  V30 3390 H 13.188 -14.413 13.573 0
M  V30 3391 H 12.79 -13.733 12.28 0
M  V30 3392 O 15.126 2.484 8.47 0
M  V30 3393 H 14.226 2.169 8.555 0
M  V30 3394 H 15.665 1.752 8.769 0
M  V30 3395 O -15.967 6.256 11.639 0
M  V30 3396 H -16.624 6.413 12.317 0
M  V30 3397 H -15.399 7.026 11.672 0
M  V30 3398 O -12.766 7.113 14.789 0
M  V30 3399 H -12.099 7.182 14.106 0
M  V30 3400 H -12.594 6.269 15.207 0
M  V30 3401 O -8.819 9.195 6.189 0
M  V30 3402 H -9.148 8.544 5.569 0
M  V30 3403 H -9.46 9.194 6.9 0
M  V30 3404 O 15.248 5.168 -12.911 0
M  V30 3405 H 16.032 5.013 -13.437 0
M  V30 3406 H 14.849 4.303 -12.814 0
M  V30 3407 O -14.401 8.409 12.624 0
M  V30 3408 H -14.733 8.426 13.521 0
M  V30 3409 H -13.451 8.342 12.72 0
M  V30 3410 O 6.551 11.646 12.807 0
M  V30 3411 H 6.41 12.55 12.525 0
M  V30 3412 H 6.909 11.207 12.035 0
M  V30 3413 O -9.175 17.143 4.713 0
M  V30 3414 H -9.472 16.618 5.457 0
M  V30 3415 H -8.264 17.355 4.917 0
M  V30 3416 O 16.445 9.16 9.235 0
M  V30 3417 H 16.318 8.212 9.278 0
M  V30 3418 H 17.066 9.286 8.518 0
M  V30 3419 O 1.797 14.054 10.751 0
M  V30 3420 H 2.622 13.85 11.19 0
M  V30 3421 H 1.563 14.925 11.072 0
M  V30 3422 O 7.196 10.897 9.067 0
M  V30 3423 H 7.981 11.079 8.55 0
M  V30 3424 H 6.494 11.36 8.608 0
M  V30 3425 O 14.901 -15.53 -14.165 0
M  V30 3426 H 15.263 -16.064 -14.871 0
M  V30 3427 H 14.293 -14.933 -14.602 0
M  V30 3428 O 14.239 10.352 6.765 0
M  V30 3429 H 14.17 10.567 7.695 0
M  V30 3430 H 15.094 10.694 6.503 0
M  V30 3431 O -13.993 -16.311 10.734 0
M  V30 3432 H -13.873 -15.497 10.244 0
M  V30 3433 H -14.348 -16.927 10.093 0
M  V30 3434 O 4.276 16.278 7.803 0
M  V30 3435 H 4.323 16.947 8.485 0
M  V30 3436 H 3.615 16.604 7.192 0
M  V30 3437 O -12.404 16.069 7.178 0
M  V30 3438 H -11.564 15.741 6.856 0
M  V30 3439 H -13.04 15.788 6.521 0
M  V30 3440 O -11.336 -14.903 11.935 0
M  V30 3441 H -12.257 -15.102 12.103 0
M  V30 3442 H -11.255 -14.929 10.982 0
M  V30 3443 O -4.384 -9.097 6.837 0
M  V30 3444 H -5.114 -8.543 7.113 0
M  V30 3445 H -3.704 -8.481 6.566 0
M  V30 3446 O 11.034 -10.047 11.36 0
M  V30 3447 H 10.416 -10.759 11.195 0
M  V30 3448 H 10.488 -9.263 11.414 0
M  V30 3449 O 14.529 -11.975 6.23 0
M  V30 3450 H 15.097 -11.402 5.717 0
M  V30 3451 H 13.698 -11.979 5.754 0
M  V30 3452 O -11.132 14.416 12.605 0
M  V30 3453 H -11.62 14.53 13.421 0
M  V30 3454 H -11.619 14.929 11.96 0
M  V30 3455 O -10.203 -9.378 9.887 0
M  V30 3456 H -9.63 -9.964 9.392 0
M  V30 3457 H -10.05 -8.514 9.503 0
M  V30 3458 O -4.683 -8.427 11.138 0
M  V30 3459 H -4.132 -8.92 10.53 0
M  V30 3460 H -5.521 -8.339 10.685 0
M  V30 3461 O 17.087 1.885 14.542 0
M  V30 3462 H 16.743 2.742 14.292 0
M  V30 3463 H 16.809 1.77 15.45 0
M  V30 3464 O 0.17 3.364 -13.911 0
M  V30 3465 H 0.293 4.282 -14.152 0
M  V30 3466 H 0.869 2.899 -14.37 0
M  V30 3467 O -2.821 -17.007 6.139 0
M  V30 3468 H -3.319 -17.345 5.394 0
M  V30 3469 H -3.178 -16.132 6.288 0
M  V30 3470 O 11.737 15.34 -12.148 0
M  V30 3471 H 11.256 15.07 -12.93 0
M  V30 3472 H 12.599 14.934 -12.244 0
M  V30 3473 O -6.828 -10.622 11.515 0
M  V30 3474 H -6.293 -10.813 10.745 0
M  V30 3475 H -7.637 -10.254 11.16 0
M  V30 3476 O 17.172 9.483 15.234 0
M  V30 3477 H 16.727 9.465 16.082 0
M  V30 3478 H 16.856 10.282 14.814 0
M  V30 3479 O 7.06 3.41 11.071 0
M  V30 3480 H 6.197 3.815 11.151 0
M  V30 3481 H 7.068 2.726 11.74 0
M  V30 3482 O 9.1 -8.575 14.766 0
M  V30 3483 H 9.068 -8.593 15.722 0
M  V30 3484 H 9.388 -7.687 14.553 0
M  V30 3485 O 14.322 -15.921 14.044 0
M  V30 3486 H 14.603 -16.744 13.644 0
M  V30 3487 H 14.68 -15.242 13.472 0
M  V30 3488 O -16.48 13.446 15.962 0
M  V30 3489 H -15.712 13.739 15.471 0
M  V30 3490 H -17.221 13.853 15.514 0
M  V30 3491 O 15.42 11.542 14.033 0
M  V30 3492 H 14.922 11.371 13.234 0
M  V30 3493 H 16.273 11.847 13.723 0
M  V30 3494 O -14.931 -10.082 12.159 0
M  V30 3495 H -14.244 -10.249 12.805 0
M  V30 3496 H -15.709 -9.888 12.681 0
M  V30 3497 O 5.301 17.053 11.669 0
M  V30 3498 H 6.026 16.727 12.202 0
M  V30 3499 H 5.633 17.027 10.771 0
M  V30 3500 O -13.949 -14.975 13.074 0
M  V30 3501 H -14.119 -15.628 12.395 0
M  V30 3502 H -14.806 -14.806 13.465 0
M  V30 3503 O -11.6 -15.338 9.116 0
M  V30 3504 H -11.1 -15.096 8.336 0
M  V30 3505 H -12.383 -14.788 9.079 0
M  V30 3506 O 9.55 14.868 -14.55 0
M  V30 3507 H 9.787 14.78 -15.473 0
M  V30 3508 H 8.649 14.55 -14.502 0
M  V30 3509 O -7.629 -5.854 14.871 0
M  V30 3510 H -8.016 -5.49 15.668 0
M  V30 3511 H -8.3 -6.443 14.526 0
M  V30 3512 O 14.791 -13.73 8.238 0
M  V30 3513 H 14.61 -12.954 7.706 0
M  V30 3514 H 15.099 -13.381 9.074 0
M  V30 3515 O -11.252 -11.471 16.388 0
M  V30 3516 H -11.093 -12.115 17.078 0
M  V30 3517 H -11.164 -11.965 15.573 0
M  V30 3518 O -2.424 -11.794 15.008 0
M  V30 3519 H -2.386 -11.335 15.847 0
M  V30 3520 H -2.996 -11.253 14.463 0
M  V30 3521 O -12.538 5.694 10.92 0
M  V30 3522 H -13.434 6.026 10.864 0
M  V30 3523 H -12.406 5.222 10.097 0
M  V30 3524 O -14.756 15.238 11.719 0
M  V30 3525 H -13.813 15.359 11.608 0
M  V30 3526 H -15.115 15.326 10.836 0
M  V30 3527 O 8.699 -14.519 -15.422 0
M  V30 3528 H 8.948 -15.441 -15.353 0
M  V30 3529 H 9.507 -14.07 -15.668 0
M  V30 3530 O 14.544 14.657 -12.572 0
M  V30 3531 H 14.825 14.201 -13.365 0
M  V30 3532 H 14.711 14.034 -11.864 0
M  V30 3533 O -8.673 9.911 -12.63 0
M  V30 3534 H -8.742 10.625 -13.263 0
M  V30 3535 H -9.205 10.198 -11.887 0
M  V30 3536 O -10.772 12.464 16.026 0
M  V30 3537 H -11.542 12.272 15.489 0
M  V30 3538 H -10.031 12.344 15.433 0
M  V30 3539 O 5.309 -12.456 12.374 0
M  V30 3540 H 4.774 -12.25 13.14 0
M  V30 3541 H 5.551 -11.602 12.013 0
M  V30 3542 O 12.948 -12.4 10.706 0
M  V30 3543 H 13.883 -12.55 10.848 0
M  V30 3544 H 12.859 -11.448 10.677 0
M  V30 3545 O -14.691 14.626 14.278 0
M  V30 3546 H -14.817 14.671 13.33 0
M  V30 3547 H -13.944 15.2 14.448 0
M  V30 3548 O -13 -9.773 9.385 0
M  V30 3549 H -12.24 -9.215 9.549 0
M  V30 3550 H -12.997 -10.401 10.107 0
M  V30 3551 O 15.997 16.784 -16.189 0
M  V30 3552 H 16.933 16.636 -16.052 0
M  V30 3553 H 15.786 16.276 -16.973 0
M  V30 3554 O -5.739 -13.854 15.105 0
M  V30 3555 H -6.674 -13.798 14.904 0
M  V30 3556 H -5.618 -13.267 15.852 0
M  V30 3557 O -15.137 -1.263 15.628 0
M  V30 3558 H -15.373 -0.589 16.266 0
M  V30 3559 H -14.28 -1.577 15.916 0
M  V30 3560 O -11.918 -11.668 11.277 0
M  V30 3561 H -12.186 -11.965 12.147 0
M  V30 3562 H -11.509 -12.435 10.876 0
M  V30 3563 O 6.615 8.123 15.495 0
M  V30 3564 H 6.226 8.99 15.38 0
M  V30 3565 H 6.215 7.785 16.296 0
M  V30 3566 O 9.212 9.046 -16.561 0
M  V30 3567 H 8.774 9.602 -15.917 0
M  V30 3568 H 8.578 8.355 -16.753 0
M  V30 3569 O -9.081 11.966 -14.375 0
M  V30 3570 H -8.806 12.785 -13.964 0
M  V30 3571 H -9.789 12.221 -14.967 0
M  V30 3572 O 10.287 5.662 -15.938 0
M  V30 3573 H 9.51 5.731 -16.493 0
M  V30 3574 H 9.951 5.371 -15.09 0
M  V30 3575 O -13.358 9.227 9.313 0
M  V30 3576 H -13.979 9.844 9.7 0
M  V30 3577 H -13.89 8.685 8.729 0
M  V30 3578 O 4.875 -11.285 -14.061 0
M  V30 3579 H 5.563 -11.251 -14.725 0
M  V30 3580 H 4.898 -12.185 -13.737 0
M  V30 3581 O 6.754 -5.729 -13.813 0
M  V30 3582 H 6.379 -6.343 -14.444 0
M  V30 3583 H 7.588 -5.465 -14.201 0
M  V30 3584 O -3.529 -6.149 12.837 0
M  V30 3585 H -3.721 -6.901 12.278 0
M  V30 3586 H -3.843 -5.394 12.339 0
M  V30 3587 O 7.547 -11.451 -15.413 0
M  V30 3588 H 8.136 -12.048 -15.875 0
M  V30 3589 H 7.969 -10.595 -15.485 0
M  V30 3590 O 15.305 14.953 14.961 0
M  V30 3591 H 14.412 14.61 14.967 0
M  V30 3592 H 15.469 15.182 14.046 0
M  V30 3593 O 16.698 -8.78 13.189 0
M  V30 3594 H 16.401 -9.241 13.973 0
M  V30 3595 H 15.93 -8.292 12.891 0
M  V30 3596 O 10.691 -2.475 -13.943 0
M  V30 3597 H 9.937 -2.956 -13.602 0
M  V30 3598 H 10.557 -1.576 -13.644 0
M  V30 3599 O 9.591 12.863 -12.492 0
M  V30 3600 H 8.759 12.438 -12.701 0
M  V30 3601 H 9.846 13.302 -13.304 0
M  V30 3602 O 16.681 14.063 -6.536 0
M  V30 3603 H 17.019 14.333 -5.682 0
M  V30 3604 H 15.937 14.644 -6.694 0
M  V30 3605 O -14.599 9.527 -14.023 0
M  V30 3606 H -14.233 9.311 -14.881 0
M  V30 3607 H -15.147 10.295 -14.183 0
M  V30 3608 O -16.518 -5.758 15.706 0
M  V30 3609 H -17.054 -6.081 16.43 0
M  V30 3610 H -17.135 -5.299 15.136 0
M  V30 3611 O -8.077 14.776 -6.848 0
M  V30 3612 H -8.443 14.057 -7.364 0
M  V30 3613 H -7.131 14.632 -6.874 0
M  V30 3614 O 12.301 13.471 -16.223 0
M  V30 3615 H 11.507 13.391 -16.751 0
M  V30 3616 H 12.662 12.585 -16.196 0
M  V30 3617 O 15.745 9.19 -12.577 0
M  V30 3618 H 14.952 8.687 -12.76 0
M  V30 3619 H 15.719 9.347 -11.634 0
M  V30 3620 O 14.649 -16.807 -11.847 0
M  V30 3621 H 14.752 -16.415 -12.715 0
M  V30 3622 H 14.711 -17.75 -12.001 0
M  V30 3623 O -0.803 -16.623 -6.279 0
M  V30 3624 H -0.501 -15.8 -6.663 0
M  V30 3625 H -0.745 -16.482 -5.334 0
M  V30 3626 O 10.085 13.874 -9.781 0
M  V30 3627 H 10.179 13.454 -10.636 0
M  V30 3628 H 10.798 14.513 -9.748 0
M  V30 3629 O 14.378 16.142 -7.388 0
M  V30 3630 H 14.21 15.615 -6.606 0
M  V30 3631 H 14.3 17.048 -7.087 0
M  V30 3632 O 15.144 15.912 12.532 0
M  V30 3633 H 15.806 16.351 11.998 0
M  V30 3634 H 14.946 15.107 12.054 0
M  V30 3635 O -10.587 16.012 -14.647 0
M  V30 3636 H -10.454 15.963 -15.594 0
M  V30 3637 H -10.104 16.792 -14.376 0
M  V30 3638 O -7.496 -17.07 -12.964 0
M  V30 3639 H -7.18 -16.194 -12.744 0
M  V30 3640 H -7.465 -17.551 -12.136 0
M  V30 3641 O 7.156 15.993 -11.382 0
M  V30 3642 H 7.32 15.618 -12.247 0
M  V30 3643 H 6.451 16.626 -11.525 0
M  V30 3644 O 14.758 -10.249 15.21 0
M  V30 3645 H 14.771 -9.658 15.963 0
M  V30 3646 H 13.955 -10.024 14.742 0
M  V30 3647 O 13.69 -14.364 -10.26 0
M  V30 3648 H 13.82 -13.48 -10.604 0
M  V30 3649 H 13.966 -14.941 -10.972 0
M  V30 3650 O 10.132 -5.553 15.028 0
M  V30 3651 H 9.268 -5.858 15.305 0
M  V30 3652 H 10.034 -4.605 14.934 0
M  V30 3653 O 10.844 -12.024 -13.557 0
M  V30 3654 H 11.284 -12.851 -13.363 0
M  V30 3655 H 10.011 -12.08 -13.088 0
M  V30 3656 O -15.461 -11.728 15.119 0
M  V30 3657 H -15.366 -10.975 15.702 0
M  V30 3658 H -15.476 -12.485 15.704 0
M  V30 3659 O -12.972 -12.247 13.729 0
M  V30 3660 H -13.749 -11.997 14.229 0
M  V30 3661 H -12.944 -13.202 13.789 0
M  V30 3662 O -9.729 -13.397 -15.498 0
M  V30 3663 H -8.818 -13.624 -15.312 0
M  V30 3664 H -10.064 -13.054 -14.669 0
M  V30 3665 O 17.003 -15.743 -11.166 0
M  V30 3666 H 16.689 -15.494 -10.297 0
M  V30 3667 H 16.258 -16.183 -11.574 0
M  V30 3668 O -15.103 -4.631 13.187 0
M  V30 3669 H -14.899 -5.565 13.223 0
M  V30 3670 H -15.381 -4.411 14.076 0
M  V30 3671 O -13.041 12.893 9.094 0
M  V30 3672 H -13.447 13.529 9.683 0
M  V30 3673 H -12.214 12.667 9.519 0
M  V30 3674 O -15.548 -15.565 -7.764 0
M  V30 3675 H -15.488 -16.211 -8.468 0
M  V30 3676 H -16.393 -15.138 -7.903 0
M  V30 3677 O -12.709 16.407 14.973 0
M  V30 3678 H -11.82 16.08 15.111 0
M  V30 3679 H -12.961 16.781 15.817 0
M  V30 3680 O 15.645 6.9 -4.359 0
M  V30 3681 H 16.298 7.534 -4.065 0
M  V30 3682 H 15.135 7.369 -5.019 0
M  V30 3683 O 12.521 8.895 -1.865 0
M  V30 3684 H 13.07 8.996 -2.642 0
M  V30 3685 H 11.68 8.586 -2.204 0
M  V30 3686 O 15.936 -15.028 -8.675 0
M  V30 3687 H 16.243 -14.254 -8.203 0
M  V30 3688 H 15.057 -14.793 -8.975 0
M  V30 3689 O 12.956 5.339 -16.293 0
M  V30 3690 H 12.025 5.389 -16.075 0
M  V30 3691 H 13.145 6.17 -16.73 0
M  V30 3692 O -6.476 -9.225 -11.263 0
M  V30 3693 H -6.782 -8.969 -12.133 0
M  V30 3694 H -5.729 -8.652 -11.092 0
M  V30 3695 O -4.969 14.267 -0.393 0
M  V30 3696 H -5.37 13.399 -0.44 0
M  V30 3697 H -4.858 14.53 -1.306 0
M  V30 3698 O -0.659 -12.167 -8.197 0
M  V30 3699 H -0.228 -12.843 -7.674 0
M  V30 3700 H -0.506 -11.355 -7.713 0
M  V30 3701 O 14.916 12.618 -10.809 0
M  V30 3702 H 14.742 12.923 -9.919 0
M  V30 3703 H 14.647 11.699 -10.805 0
M  V30 3704 O 11.893 15.973 -9.38 0
M  V30 3705 H 12.561 16.538 -8.992 0
M  V30 3706 H 12.018 16.068 -10.324 0
M  V30 3707 O -12.364 12.248 -1.312 0
M  V30 3708 H -11.821 11.911 -2.024 0
M  V30 3709 H -12.528 11.488 -0.754 0
M  V30 3710 O 11.337 -5.774 -11.931 0
M  V30 3711 H 11.452 -5.841 -10.983 0
M  V30 3712 H 11.81 -4.978 -12.174 0
M  V30 3713 O 14.61 -6.942 -10.125 0
M  V30 3714 H 14.802 -6.004 -10.106 0
M  V30 3715 H 15.45 -7.362 -9.94 0
M  V30 3716 O -14.403 -8.207 -10.579 0
M  V30 3717 H -14.281 -9.044 -10.132 0
M  V30 3718 H -13.649 -8.136 -11.165 0
M  V30 3719 O -16.017 -13.447 -15.866 0
M  V30 3720 H -16.222 -13.666 -14.957 0
M  V30 3721 H -15.412 -14.134 -16.148 0
M  V30 3722 O 10.781 -9.458 -9.535 0
M  V30 3723 H 10.324 -10.284 -9.694 0
M  V30 3724 H 10.116 -8.785 -9.677 0
M  V30 3725 O 8.689 -7.8 -9.645 0
M  V30 3726 H 8.916 -7.019 -9.141 0
M  V30 3727 H 7.89 -7.559 -10.113 0
M  V30 3728 O 9.956 11.391 -7.97 0
M  V30 3729 H 9.18 10.926 -8.283 0
M  V30 3730 H 9.901 12.253 -8.382 0
M  V30 3731 O 12.243 -9.317 13.821 0
M  V30 3732 H 12.627 -8.732 13.167 0
M  V30 3733 H 11.634 -9.864 13.324 0
M  V30 3734 O 13.567 -10.749 -13.772 0
M  V30 3735 H 12.71 -11.136 -13.593 0
M  V30 3736 H 13.47 -9.828 -13.528 0
M  V30 3737 O -16.643 -11.177 -9.539 0
M  V30 3738 H -16.606 -11.565 -10.413 0
M  V30 3739 H -16.836 -10.253 -9.695 0
M  V30 3740 O -9.41 -7.765 -11.045 0
M  V30 3741 H -9.237 -7.182 -10.306 0
M  V30 3742 H -9.013 -7.324 -11.797 0
M  V30 END ATOM
M  V30 BEGIN BOND
M  V30 1 1 5 1
M  V30 2 1 3 1
M  V30 3 1 1 2
M  V30 4 1 1 4
M  V30 5 1 18 6
M  V30 6 1 72 6
M  V30 7 1 6 26
M  V30 8 1 6 7
M  V30 9 1 19 7
M  V30 10 1 7 8
M  V30 11 1 7 73
M  V30 12 1 9 8
M  V30 13 1 8 74
M  V30 14 1 8 20
M  V30 15 1 10 9
M  V30 16 1 75 9
M  V30 17 1 9 22
M  V30 18 1 11 10
M  V30 19 1 18 10
M  V30 20 1 10 76
M  V30 21 1 21 11
M  V30 22 1 78 11
M  V30 23 1 11 77
M  V30 24 1 23 12
M  V30 25 1 79 12
M  V30 26 1 12 22
M  V30 27 1 12 13
M  V30 28 1 14 13
M  V30 29 1 13 80
M  V30 30 1 13 24
M  V30 31 1 15 14
M  V30 32 1 81 14
M  V30 33 1 14 25
M  V30 34 1 16 15
M  V30 35 1 82 15
M  V30 36 1 15 55
M  V30 37 1 83 16
M  V30 38 1 17 16
M  V30 39 1 16 23
M  V30 40 1 27 17
M  V30 41 1 85 17
M  V30 42 1 17 84
M  V30 43 1 86 19
M  V30 44 1 20 87
M  V30 45 1 21 88
M  V30 46 1 24 89
M  V30 47 1 25 90
M  V30 48 1 28 26
M  V30 49 1 91 27
M  V30 50 1 67 28
M  V30 51 1 92 28
M  V30 52 1 28 29
M  V30 53 1 93 29
M  V30 54 1 29 30
M  V30 55 1 29 71
M  V30 56 1 31 30
M  V30 57 1 30 94
M  V30 58 1 30 70
M  V30 59 1 66 31
M  V30 60 1 95 31
M  V30 61 1 31 32
M  V30 62 1 32 33
M  V30 63 1 38 33
M  V30 64 1 96 33
M  V30 65 1 33 34
M  V30 66 1 34 35
M  V30 67 1 34 65
M  V30 68 1 34 97
M  V30 69 1 36 35
M  V30 70 1 35 64
M  V30 71 1 35 98
M  V30 72 1 37 36
M  V30 73 1 99 36
M  V30 74 1 36 41
M  V30 75 1 38 37
M  V30 76 1 39 38
M  V30 77 1 38 100
M  V30 78 1 102 39
M  V30 79 1 40 39
M  V30 80 1 101 39
M  V30 81 1 40 103
M  V30 82 1 42 41
M  V30 83 1 59 42
M  V30 84 1 42 104
M  V30 85 1 42 43
M  V30 86 1 105 43
M  V30 87 1 44 43
M  V30 88 1 43 63
M  V30 89 1 45 44
M  V30 90 1 44 106
M  V30 91 1 44 62
M  V30 92 1 58 45
M  V30 93 1 107 45
M  V30 94 1 46 45
M  V30 95 1 47 46
M  V30 96 1 108 47
M  V30 97 1 52 47
M  V30 98 1 47 48
M  V30 99 1 49 48
M  V30 100 1 48 109
M  V30 101 1 48 57
M  V30 102 1 50 49
M  V30 103 1 56 49
M  V30 104 1 49 110
M  V30 105 1 51 50
M  V30 106 1 111 50
M  V30 107 1 50 55
M  V30 108 1 51 52
M  V30 109 1 53 52
M  V30 110 1 52 112
M  V30 111 1 54 53
M  V30 112 1 114 53
M  V30 113 1 53 113
M  V30 114 1 115 54
M  V30 115 1 116 56
M  V30 116 1 57 117
M  V30 117 1 58 59
M  V30 118 1 60 59
M  V30 119 1 118 59
M  V30 120 1 61 60
M  V30 121 1 60 119
M  V30 122 1 60 120
M  V30 123 1 121 61
M  V30 124 1 122 62
M  V30 125 1 63 123
M  V30 126 1 64 124
M  V30 127 1 125 65
M  V30 128 1 67 66
M  V30 129 1 68 67
M  V30 130 1 126 67
M  V30 131 1 69 68
M  V30 132 1 128 68
M  V30 133 1 68 127
M  V30 134 1 69 129
M  V30 135 1 130 70
M  V30 136 1 71 131
M  V30 137 1 135 134
M  V30 138 1 134 136
M  V30 139 1 138 137
M  V30 140 1 137 139
M  V30 141 1 141 140
M  V30 142 1 140 142
M  V30 143 1 143 145
M  V30 144 1 143 144
M  V30 145 1 147 146
M  V30 146 1 146 148
M  V30 147 1 149 150
M  V30 148 1 149 151
M  V30 149 1 154 152
M  V30 150 1 153 152
M  V30 151 1 157 155
M  V30 152 1 155 156
M  V30 153 1 159 158
M  V30 154 1 158 160
M  V30 155 1 163 161
M  V30 156 1 162 161
M  V30 157 1 166 164
M  V30 158 1 165 164
M  V30 159 1 169 167
M  V30 160 1 167 168
M  V30 161 1 172 170
M  V30 162 1 170 171
M  V30 163 1 174 173
M  V30 164 1 173 175
M  V30 165 1 176 178
M  V30 166 1 176 177
M  V30 167 1 180 179
M  V30 168 1 179 181
M  V30 169 1 182 183
M  V30 170 1 182 184
M  V30 171 1 186 185
M  V30 172 1 187 185
M  V30 173 1 189 188
M  V30 174 1 188 190
M  V30 175 1 191 193
M  V30 176 1 191 192
M  V30 177 1 196 194
M  V30 178 1 194 195
M  V30 179 1 199 197
M  V30 180 1 197 198
M  V30 181 1 200 201
M  V30 182 1 200 202
M  V30 183 1 203 205
M  V30 184 1 203 204
M  V30 185 1 208 206
M  V30 186 1 207 206
M  V30 187 1 209 210
M  V30 188 1 209 211
M  V30 189 1 214 212
M  V30 190 1 212 213
M  V30 191 1 217 215
M  V30 192 1 215 216
M  V30 193 1 220 218
M  V30 194 1 218 219
M  V30 195 1 223 221
M  V30 196 1 221 222
M  V30 197 1 225 224
M  V30 198 1 224 226
M  V30 199 1 228 227
M  V30 200 1 229 227
M  V30 201 1 232 230
M  V30 202 1 230 231
M  V30 203 1 233 234
M  V30 204 1 233 235
M  V30 205 1 238 236
M  V30 206 1 236 237
M  V30 207 1 240 239
M  V30 208 1 239 241
M  V30 209 1 244 242
M  V30 210 1 243 242
M  V30 211 1 245 246
M  V30 212 1 245 247
M  V30 213 1 250 248
M  V30 214 1 248 249
M  V30 215 1 253 251
M  V30 216 1 251 252
M  V30 217 1 254 255
M  V30 218 1 254 256
M  V30 219 1 259 257
M  V30 220 1 257 258
M  V30 221 1 260 262
M  V30 222 1 260 261
M  V30 223 1 264 263
M  V30 224 1 263 265
M  V30 225 1 267 266
M  V30 226 1 268 266
M  V30 227 1 269 271
M  V30 228 1 269 270
M  V30 229 1 273 272
M  V30 230 1 272 274
M  V30 231 1 275 276
M  V30 232 1 275 277
M  V30 233 1 279 278
M  V30 234 1 280 278
M  V30 235 1 282 281
M  V30 236 1 283 281
M  V30 237 1 286 284
M  V30 238 1 284 285
M  V30 239 1 287 288
M  V30 240 1 287 289
M  V30 241 1 291 290
M  V30 242 1 290 292
M  V30 243 1 293 295
M  V30 244 1 293 294
M  V30 245 1 297 296
M  V30 246 1 298 296
M  V30 247 1 301 299
M  V30 248 1 299 300
M  V30 249 1 303 302
M  V30 250 1 304 302
M  V30 251 1 306 305
M  V30 252 1 305 307
M  V30 253 1 310 308
M  V30 254 1 308 309
M  V30 255 1 313 311
M  V30 256 1 311 312
M  V30 257 1 316 314
M  V30 258 1 314 315
M  V30 259 1 318 317
M  V30 260 1 317 319
M  V30 261 1 322 320
M  V30 262 1 320 321
M  V30 263 1 325 323
M  V30 264 1 323 324
M  V30 265 1 328 326
M  V30 266 1 326 327
M  V30 267 1 329 331
M  V30 268 1 329 330
M  V30 269 1 334 332
M  V30 270 1 333 332
M  V30 271 1 337 335
M  V30 272 1 336 335
M  V30 273 1 340 338
M  V30 274 1 338 339
M  V30 275 1 341 343
M  V30 276 1 341 342
M  V30 277 1 344 345
M  V30 278 1 344 346
M  V30 279 1 347 348
M  V30 280 1 347 349
M  V30 281 1 350 352
M  V30 282 1 350 351
M  V30 283 1 354 353
M  V30 284 1 353 355
M  V30 285 1 357 356
M  V30 286 1 356 358
M  V30 287 1 360 359
M  V30 288 1 359 361
M  V30 289 1 362 363
M  V30 290 1 362 364
M  V30 291 1 366 365
M  V30 292 1 365 367
M  V30 293 1 370 368
M  V30 294 1 368 369
M  V30 295 1 372 371
M  V30 296 1 373 371
M  V30 297 1 375 374
M  V30 298 1 374 376
M  V30 299 1 379 377
M  V30 300 1 377 378
M  V30 301 1 381 380
M  V30 302 1 382 380
M  V30 303 1 385 383
M  V30 304 1 383 384
M  V30 305 1 387 386
M  V30 306 1 386 388
M  V30 307 1 391 389
M  V30 308 1 390 389
M  V30 309 1 392 394
M  V30 310 1 392 393
M  V30 311 1 395 397
M  V30 312 1 395 396
M  V30 313 1 400 398
M  V30 314 1 398 399
M  V30 315 1 402 401
M  V30 316 1 403 401
M  V30 317 1 406 404
M  V30 318 1 404 405
M  V30 319 1 407 408
M  V30 320 1 407 409
M  V30 321 1 411 410
M  V30 322 1 410 412
M  V30 323 1 415 413
M  V30 324 1 413 414
M  V30 325 1 418 416
M  V30 326 1 416 417
M  V30 327 1 419 420
M  V30 328 1 419 421
M  V30 329 1 423 422
M  V30 330 1 422 424
M  V30 331 1 426 425
M  V30 332 1 425 427
M  V30 333 1 430 428
M  V30 334 1 428 429
M  V30 335 1 432 431
M  V30 336 1 431 433
M  V30 337 1 434 435
M  V30 338 1 434 436
M  V30 339 1 438 437
M  V30 340 1 437 439
M  V30 341 1 442 440
M  V30 342 1 440 441
M  V30 343 1 443 444
M  V30 344 1 443 445
M  V30 345 1 448 446
M  V30 346 1 447 446
M  V30 347 1 451 449
M  V30 348 1 449 450
M  V30 349 1 453 452
M  V30 350 1 452 454
M  V30 351 1 457 455
M  V30 352 1 455 456
M  V30 353 1 459 458
M  V30 354 1 460 458
M  V30 355 1 463 461
M  V30 356 1 461 462
M  V30 357 1 466 464
M  V30 358 1 464 465
M  V30 359 1 469 467
M  V30 360 1 468 467
M  V30 361 1 472 470
M  V30 362 1 470 471
M  V30 363 1 475 473
M  V30 364 1 473 474
M  V30 365 1 478 476
M  V30 366 1 476 477
M  V30 367 1 481 479
M  V30 368 1 479 480
M  V30 369 1 483 482
M  V30 370 1 482 484
M  V30 371 1 486 485
M  V30 372 1 485 487
M  V30 373 1 489 488
M  V30 374 1 488 490
M  V30 375 1 491 492
M  V30 376 1 491 493
M  V30 377 1 494 495
M  V30 378 1 494 496
M  V30 379 1 498 497
M  V30 380 1 497 499
M  V30 381 1 501 500
M  V30 382 1 500 502
M  V30 383 1 504 503
M  V30 384 1 503 505
M  V30 385 1 508 506
M  V30 386 1 506 507
M  V30 387 1 510 509
M  V30 388 1 509 511
M  V30 389 1 514 512
M  V30 390 1 512 513
M  V30 391 1 516 515
M  V30 392 1 515 517
M  V30 393 1 518 519
M  V30 394 1 518 520
M  V30 395 1 523 521
M  V30 396 1 521 522
M  V30 397 1 526 524
M  V30 398 1 524 525
M  V30 399 1 528 527
M  V30 400 1 527 529
M  V30 401 1 530 532
M  V30 402 1 530 531
M  V30 403 1 534 533
M  V30 404 1 533 535
M  V30 405 1 537 536
M  V30 406 1 536 538
M  V30 407 1 541 539
M  V30 408 1 540 539
M  V30 409 1 542 544
M  V30 410 1 542 543
M  V30 411 1 546 545
M  V30 412 1 545 547
M  V30 413 1 550 548
M  V30 414 1 548 549
M  V30 415 1 552 551
M  V30 416 1 551 553
M  V30 417 1 555 554
M  V30 418 1 554 556
M  V30 419 1 558 557
M  V30 420 1 559 557
M  V30 421 1 561 560
M  V30 422 1 562 560
M  V30 423 1 564 563
M  V30 424 1 563 565
M  V30 425 1 566 567
M  V30 426 1 566 568
M  V30 427 1 571 569
M  V30 428 1 569 570
M  V30 429 1 574 572
M  V30 430 1 572 573
M  V30 431 1 575 577
M  V30 432 1 575 576
M  V30 433 1 580 578
M  V30 434 1 579 578
M  V30 435 1 582 581
M  V30 436 1 583 581
M  V30 437 1 584 586
M  V30 438 1 584 585
M  V30 439 1 587 589
M  V30 440 1 587 588
M  V30 441 1 590 591
M  V30 442 1 590 592
M  V30 443 1 594 593
M  V30 444 1 593 595
M  V30 445 1 597 596
M  V30 446 1 596 598
M  V30 447 1 600 599
M  V30 448 1 599 601
M  V30 449 1 603 602
M  V30 450 1 602 604
M  V30 451 1 605 606
M  V30 452 1 605 607
M  V30 453 1 610 608
M  V30 454 1 609 608
M  V30 455 1 611 613
M  V30 456 1 611 612
M  V30 457 1 615 614
M  V30 458 1 614 616
M  V30 459 1 618 617
M  V30 460 1 617 619
M  V30 461 1 621 620
M  V30 462 1 620 622
M  V30 463 1 625 623
M  V30 464 1 624 623
M  V30 465 1 627 626
M  V30 466 1 626 628
M  V30 467 1 631 629
M  V30 468 1 629 630
M  V30 469 1 633 632
M  V30 470 1 634 632
M  V30 471 1 637 635
M  V30 472 1 635 636
M  V30 473 1 639 638
M  V30 474 1 638 640
M  V30 475 1 641 642
M  V30 476 1 641 643
M  V30 477 1 645 644
M  V30 478 1 644 646
M  V30 479 1 647 648
M  V30 480 1 647 649
M  V30 481 1 652 650
M  V30 482 1 650 651
M  V30 483 1 653 654
M  V30 484 1 653 655
M  V30 485 1 656 657
M  V30 486 1 656 658
M  V30 487 1 659 661
M  V30 488 1 659 660
M  V30 489 1 663 662
M  V30 490 1 662 664
M  V30 491 1 667 665
M  V30 492 1 665 666
M  V30 493 1 670 668
M  V30 494 1 668 669
M  V30 495 1 673 671
M  V30 496 1 671 672
M  V30 497 1 674 675
M  V30 498 1 674 676
M  V30 499 1 677 678
M  V30 500 1 677 679
M  V30 501 1 681 680
M  V30 502 1 680 682
M  V30 503 1 684 683
M  V30 504 1 683 685
M  V30 505 1 687 686
M  V30 506 1 688 686
M  V30 507 1 691 689
M  V30 508 1 689 690
M  V30 509 1 693 692
M  V30 510 1 694 692
M  V30 511 1 697 695
M  V30 512 1 695 696
M  V30 513 1 700 698
M  V30 514 1 698 699
M  V30 515 1 703 701
M  V30 516 1 702 701
M  V30 517 1 706 704
M  V30 518 1 705 704
M  V30 519 1 708 707
M  V30 520 1 707 709
M  V30 521 1 711 710
M  V30 522 1 710 712
M  V30 523 1 714 713
M  V30 524 1 713 715
M  V30 525 1 718 716
M  V30 526 1 716 717
M  V30 527 1 721 719
M  V30 528 1 719 720
M  V30 529 1 722 724
M  V30 530 1 722 723
M  V30 531 1 726 725
M  V30 532 1 725 727
M  V30 533 1 729 728
M  V30 534 1 730 728
M  V30 535 1 733 731
M  V30 536 1 732 731
M  V30 537 1 736 734
M  V30 538 1 735 734
M  V30 539 1 739 737
M  V30 540 1 738 737
M  V30 541 1 742 740
M  V30 542 1 740 741
M  V30 543 1 743 745
M  V30 544 1 743 744
M  V30 545 1 746 747
M  V30 546 1 746 748
M  V30 547 1 750 749
M  V30 548 1 751 749
M  V30 549 1 753 752
M  V30 550 1 752 754
M  V30 551 1 755 757
M  V30 552 1 755 756
M  V30 553 1 758 760
M  V30 554 1 758 759
M  V30 555 1 761 763
M  V30 556 1 761 762
M  V30 557 1 766 764
M  V30 558 1 764 765
M  V30 559 1 767 769
M  V30 560 1 767 768
M  V30 561 1 771 770
M  V30 562 1 772 770
M  V30 563 1 773 774
M  V30 564 1 773 775
M  V30 565 1 777 776
M  V30 566 1 778 776
M  V30 567 1 781 779
M  V30 568 1 780 779
M  V30 569 1 782 783
M  V30 570 1 782 784
M  V30 571 1 787 785
M  V30 572 1 785 786
M  V30 573 1 789 788
M  V30 574 1 788 790
M  V30 575 1 791 793
M  V30 576 1 791 792
M  V30 577 1 794 795
M  V30 578 1 794 796
M  V30 579 1 799 797
M  V30 580 1 797 798
M  V30 581 1 801 800
M  V30 582 1 802 800
M  V30 583 1 805 803
M  V30 584 1 803 804
M  V30 585 1 807 806
M  V30 586 1 806 808
M  V30 587 1 811 809
M  V30 588 1 809 810
M  V30 589 1 814 812
M  V30 590 1 812 813
M  V30 591 1 817 815
M  V30 592 1 816 815
M  V30 593 1 818 819
M  V30 594 1 818 820
M  V30 595 1 821 823
M  V30 596 1 821 822
M  V30 597 1 825 824
M  V30 598 1 824 826
M  V30 599 1 829 827
M  V30 600 1 827 828
M  V30 601 1 831 830
M  V30 602 1 830 832
M  V30 603 1 833 834
M  V30 604 1 833 835
M  V30 605 1 836 837
M  V30 606 1 836 838
M  V30 607 1 841 839
M  V30 608 1 840 839
M  V30 609 1 843 842
M  V30 610 1 844 842
M  V30 611 1 845 847
M  V30 612 1 845 846
M  V30 613 1 850 848
M  V30 614 1 849 848
M  V30 615 1 852 851
M  V30 616 1 853 851
M  V30 617 1 855 854
M  V30 618 1 854 856
M  V30 619 1 858 857
M  V30 620 1 857 859
M  V30 621 1 861 860
M  V30 622 1 862 860
M  V30 623 1 864 863
M  V30 624 1 865 863
M  V30 625 1 867 866
M  V30 626 1 866 868
M  V30 627 1 871 869
M  V30 628 1 869 870
M  V30 629 1 873 872
M  V30 630 1 872 874
M  V30 631 1 875 876
M  V30 632 1 875 877
M  V30 633 1 879 878
M  V30 634 1 878 880
M  V30 635 1 882 881
M  V30 636 1 881 883
M  V30 637 1 885 884
M  V30 638 1 884 886
M  V30 639 1 889 887
M  V30 640 1 887 888
M  V30 641 1 891 890
M  V30 642 1 890 892
M  V30 643 1 895 893
M  V30 644 1 893 894
M  V30 645 1 896 897
M  V30 646 1 896 898
M  V30 647 1 901 899
M  V30 648 1 900 899
M  V30 649 1 903 902
M  V30 650 1 902 904
M  V30 651 1 905 907
M  V30 652 1 905 906
M  V30 653 1 910 908
M  V30 654 1 909 908
M  V30 655 1 913 911
M  V30 656 1 911 912
M  V30 657 1 914 915
M  V30 658 1 914 916
M  V30 659 1 917 919
M  V30 660 1 917 918
M  V30 661 1 922 920
M  V30 662 1 920 921
M  V30 663 1 924 923
M  V30 664 1 925 923
M  V30 665 1 926 928
M  V30 666 1 926 927
M  V30 667 1 930 929
M  V30 668 1 929 931
M  V30 669 1 934 932
M  V30 670 1 932 933
M  V30 671 1 936 935
M  V30 672 1 935 937
M  V30 673 1 939 938
M  V30 674 1 938 940
M  V30 675 1 941 943
M  V30 676 1 941 942
M  V30 677 1 945 944
M  V30 678 1 944 946
M  V30 679 1 948 947
M  V30 680 1 947 949
M  V30 681 1 952 950
M  V30 682 1 951 950
M  V30 683 1 954 953
M  V30 684 1 955 953
M  V30 685 1 957 956
M  V30 686 1 958 956
M  V30 687 1 959 960
M  V30 688 1 959 961
M  V30 689 1 964 962
M  V30 690 1 962 963
M  V30 691 1 965 967
M  V30 692 1 965 966
M  V30 693 1 969 968
M  V30 694 1 968 970
M  V30 695 1 972 971
M  V30 696 1 971 973
M  V30 697 1 975 974
M  V30 698 1 974 976
M  V30 699 1 978 977
M  V30 700 1 977 979
M  V30 701 1 982 980
M  V30 702 1 981 980
M  V30 703 1 985 983
M  V30 704 1 983 984
M  V30 705 1 986 987
M  V30 706 1 986 988
M  V30 707 1 990 989
M  V30 708 1 991 989
M  V30 709 1 992 994
M  V30 710 1 992 993
M  V30 711 1 997 995
M  V30 712 1 995 996
M  V30 713 1 999 998
M  V30 714 1 998 1000
M  V30 715 1 1003 1001
M  V30 716 1 1001 1002
M  V30 717 1 1006 1004
M  V30 718 1 1005 1004
M  V30 719 1 1008 1007
M  V30 720 1 1007 1009
M  V30 721 1 1012 1010
M  V30 722 1 1010 1011
M  V30 723 1 1013 1015
M  V30 724 1 1013 1014
M  V30 725 1 1017 1016
M  V30 726 1 1016 1018
M  V30 727 1 1019 1021
M  V30 728 1 1019 1020
M  V30 729 1 1024 1022
M  V30 730 1 1022 1023
M  V30 731 1 1026 1025
M  V30 732 1 1025 1027
M  V30 733 1 1028 1029
M  V30 734 1 1028 1030
M  V30 735 1 1032 1031
M  V30 736 1 1031 1033
M  V30 737 1 1036 1034
M  V30 738 1 1034 1035
M  V30 739 1 1038 1037
M  V30 740 1 1037 1039
M  V30 741 1 1041 1040
M  V30 742 1 1042 1040
M  V30 743 1 1043 1044
M  V30 744 1 1043 1045
M  V30 745 1 1048 1046
M  V30 746 1 1046 1047
M  V30 747 1 1050 1049
M  V30 748 1 1049 1051
M  V30 749 1 1053 1052
M  V30 750 1 1052 1054
M  V30 751 1 1056 1055
M  V30 752 1 1055 1057
M  V30 753 1 1060 1058
M  V30 754 1 1058 1059
M  V30 755 1 1063 1061
M  V30 756 1 1061 1062
M  V30 757 1 1066 1064
M  V30 758 1 1064 1065
M  V30 759 1 1067 1069
M  V30 760 1 1067 1068
M  V30 761 1 1072 1070
M  V30 762 1 1071 1070
M  V30 763 1 1075 1073
M  V30 764 1 1074 1073
M  V30 765 1 1077 1076
M  V30 766 1 1076 1078
M  V30 767 1 1079 1080
M  V30 768 1 1079 1081
M  V30 769 1 1083 1082
M  V30 770 1 1082 1084
M  V30 771 1 1086 1085
M  V30 772 1 1085 1087
M  V30 773 1 1090 1088
M  V30 774 1 1089 1088
M  V30 775 1 1093 1091
M  V30 776 1 1092 1091
M  V30 777 1 1095 1094
M  V30 778 1 1094 1096
M  V30 779 1 1098 1097
M  V30 780 1 1099 1097
M  V30 781 1 1102 1100
M  V30 782 1 1101 1100
M  V30 783 1 1104 1103
M  V30 784 1 1103 1105
M  V30 785 1 1108 1106
M  V30 786 1 1107 1106
M  V30 787 1 1110 1109
M  V30 788 1 1109 1111
M  V30 789 1 1114 1112
M  V30 790 1 1113 1112
M  V30 791 1 1117 1115
M  V30 792 1 1115 1116
M  V30 793 1 1119 1118
M  V30 794 1 1120 1118
M  V30 795 1 1123 1121
M  V30 796 1 1121 1122
M  V30 797 1 1126 1124
M  V30 798 1 1125 1124
M  V30 799 1 1129 1127
M  V30 800 1 1128 1127
M  V30 801 1 1130 1131
M  V30 802 1 1130 1132
M  V30 803 1 1133 1134
M  V30 804 1 1133 1135
M  V30 805 1 1137 1136
M  V30 806 1 1136 1138
M  V30 807 1 1140 1139
M  V30 808 1 1139 1141
M  V30 809 1 1143 1142
M  V30 810 1 1142 1144
M  V30 811 1 1145 1147
M  V30 812 1 1145 1146
M  V30 813 1 1149 1148
M  V30 814 1 1150 1148
M  V30 815 1 1152 1151
M  V30 816 1 1151 1153
M  V30 817 1 1156 1154
M  V30 818 1 1155 1154
M  V30 819 1 1158 1157
M  V30 820 1 1157 1159
M  V30 821 1 1160 1162
M  V30 822 1 1160 1161
M  V30 823 1 1164 1163
M  V30 824 1 1163 1165
M  V30 825 1 1168 1166
M  V30 826 1 1166 1167
M  V30 827 1 1169 1170
M  V30 828 1 1169 1171
M  V30 829 1 1173 1172
M  V30 830 1 1174 1172
M  V30 831 1 1177 1175
M  V30 832 1 1175 1176
M  V30 833 1 1180 1178
M  V30 834 1 1178 1179
M  V30 835 1 1183 1181
M  V30 836 1 1181 1182
M  V30 837 1 1185 1184
M  V30 838 1 1184 1186
M  V30 839 1 1189 1187
M  V30 840 1 1187 1188
M  V30 841 1 1192 1190
M  V30 842 1 1191 1190
M  V30 843 1 1195 1193
M  V30 844 1 1193 1194
M  V30 845 1 1197 1196
M  V30 846 1 1196 1198
M  V30 847 1 1200 1199
M  V30 848 1 1199 1201
M  V30 849 1 1203 1202
M  V30 850 1 1202 1204
M  V30 851 1 1206 1205
M  V30 852 1 1207 1205
M  V30 853 1 1208 1209
M  V30 854 1 1208 1210
M  V30 855 1 1213 1211
M  V30 856 1 1211 1212
M  V30 857 1 1215 1214
M  V30 858 1 1214 1216
M  V30 859 1 1219 1217
M  V30 860 1 1217 1218
M  V30 861 1 1220 1222
M  V30 862 1 1220 1221
M  V30 863 1 1225 1223
M  V30 864 1 1223 1224
M  V30 865 1 1228 1226
M  V30 866 1 1227 1226
M  V30 867 1 1230 1229
M  V30 868 1 1229 1231
M  V30 869 1 1234 1232
M  V30 870 1 1232 1233
M  V30 871 1 1237 1235
M  V30 872 1 1236 1235
M  V30 873 1 1239 1238
M  V30 874 1 1238 1240
M  V30 875 1 1243 1241
M  V30 876 1 1241 1242
M  V30 877 1 1244 1246
M  V30 878 1 1244 1245
M  V30 879 1 1249 1247
M  V30 880 1 1247 1248
M  V30 881 1 1251 1250
M  V30 882 1 1252 1250
M  V30 883 1 1254 1253
M  V30 884 1 1255 1253
M  V30 885 1 1258 1256
M  V30 886 1 1257 1256
M  V30 887 1 1259 1260
M  V30 888 1 1259 1261
M  V30 889 1 1264 1262
M  V30 890 1 1262 1263
M  V30 891 1 1266 1265
M  V30 892 1 1267 1265
M  V30 893 1 1269 1268
M  V30 894 1 1270 1268
M  V30 895 1 1271 1273
M  V30 896 1 1271 1272
M  V30 897 1 1274 1275
M  V30 898 1 1274 1276
M  V30 899 1 1277 1279
M  V30 900 1 1277 1278
M  V30 901 1 1282 1280
M  V30 902 1 1280 1281
M  V30 903 1 1283 1285
M  V30 904 1 1283 1284
M  V30 905 1 1286 1287
M  V30 906 1 1286 1288
M  V30 907 1 1291 1289
M  V30 908 1 1289 1290
M  V30 909 1 1293 1292
M  V30 910 1 1292 1294
M  V30 911 1 1296 1295
M  V30 912 1 1295 1297
M  V30 913 1 1298 1300
M  V30 914 1 1298 1299
M  V30 915 1 1302 1301
M  V30 916 1 1301 1303
M  V30 917 1 1306 1304
M  V30 918 1 1305 1304
M  V30 919 1 1309 1307
M  V30 920 1 1307 1308
M  V30 921 1 1312 1310
M  V30 922 1 1310 1311
M  V30 923 1 1315 1313
M  V30 924 1 1314 1313
M  V30 925 1 1316 1318
M  V30 926 1 1316 1317
M  V30 927 1 1320 1319
M  V30 928 1 1319 1321
M  V30 929 1 1324 1322
M  V30 930 1 1322 1323
M  V30 931 1 1327 1325
M  V30 932 1 1326 1325
M  V30 933 1 1330 1328
M  V30 934 1 1329 1328
M  V30 935 1 1333 1331
M  V30 936 1 1331 1332
M  V30 937 1 1336 1334
M  V30 938 1 1334 1335
M  V30 939 1 1337 1339
M  V30 940 1 1337 1338
M  V30 941 1 1342 1340
M  V30 942 1 1340 1341
M  V30 943 1 1344 1343
M  V30 944 1 1343 1345
M  V30 945 1 1347 1346
M  V30 946 1 1346 1348
M  V30 947 1 1350 1349
M  V30 948 1 1349 1351
M  V30 949 1 1354 1352
M  V30 950 1 1352 1353
M  V30 951 1 1356 1355
M  V30 952 1 1355 1357
M  V30 953 1 1359 1358
M  V30 954 1 1360 1358
M  V30 955 1 1362 1361
M  V30 956 1 1361 1363
M  V30 957 1 1365 1364
M  V30 958 1 1364 1366
M  V30 959 1 1369 1367
M  V30 960 1 1367 1368
M  V30 961 1 1372 1370
M  V30 962 1 1371 1370
M  V30 963 1 1373 1374
M  V30 964 1 1373 1375
M  V30 965 1 1377 1376
M  V30 966 1 1378 1376
M  V30 967 1 1381 1379
M  V30 968 1 1380 1379
M  V30 969 1 1384 1382
M  V30 970 1 1382 1383
M  V30 971 1 1386 1385
M  V30 972 1 1385 1387
M  V30 973 1 1388 1389
M  V30 974 1 1388 1390
M  V30 975 1 1393 1391
M  V30 976 1 1392 1391
M  V30 977 1 1396 1394
M  V30 978 1 1394 1395
M  V30 979 1 1397 1399
M  V30 980 1 1397 1398
M  V30 981 1 1401 1400
M  V30 982 1 1400 1402
M  V30 983 1 1404 1403
M  V30 984 1 1403 1405
M  V30 985 1 1406 1407
M  V30 986 1 1406 1408
M  V30 987 1 1410 1409
M  V30 988 1 1409 1411
M  V30 989 1 1414 1412
M  V30 990 1 1412 1413
M  V30 991 1 1416 1415
M  V30 992 1 1417 1415
M  V30 993 1 1419 1418
M  V30 994 1 1420 1418
M  V30 995 1 1423 1421
M  V30 996 1 1421 1422
M  V30 997 1 1426 1424
M  V30 998 1 1425 1424
M  V30 999 1 1429 1427
M  V30 1000 1 1427 1428
M  V30 1001 1 1430 1432
M  V30 1002 1 1430 1431
M  V30 1003 1 1433 1435
M  V30 1004 1 1433 1434
M  V30 1005 1 1437 1436
M  V30 1006 1 1438 1436
M  V30 1007 1 1441 1439
M  V30 1008 1 1439 1440
M  V30 1009 1 1444 1442
M  V30 1010 1 1443 1442
M  V30 1011 1 1445 1447
M  V30 1012 1 1445 1446
M  V30 1013 1 1450 1448
M  V30 1014 1 1448 1449
M  V30 1015 1 1452 1451
M  V30 1016 1 1451 1453
M  V30 1017 1 1456 1454
M  V30 1018 1 1454 1455
M  V30 1019 1 1459 1457
M  V30 1020 1 1457 1458
M  V30 1021 1 1461 1460
M  V30 1022 1 1462 1460
M  V30 1023 1 1463 1464
M  V30 1024 1 1463 1465
M  V30 1025 1 1468 1466
M  V30 1026 1 1466 1467
M  V30 1027 1 1469 1470
M  V30 1028 1 1469 1471
M  V30 1029 1 1472 1473
M  V30 1030 1 1472 1474
M  V30 1031 1 1475 1476
M  V30 1032 1 1475 1477
M  V30 1033 1 1479 1478
M  V30 1034 1 1478 1480
M  V30 1035 1 1482 1481
M  V30 1036 1 1483 1481
M  V30 1037 1 1485 1484
M  V30 1038 1 1484 1486
M  V30 1039 1 1489 1487
M  V30 1040 1 1487 1488
M  V30 1041 1 1491 1490
M  V30 1042 1 1492 1490
M  V30 1043 1 1495 1493
M  V30 1044 1 1493 1494
M  V30 1045 1 1498 1496
M  V30 1046 1 1496 1497
M  V30 1047 1 1500 1499
M  V30 1048 1 1501 1499
M  V30 1049 1 1503 1502
M  V30 1050 1 1502 1504
M  V30 1051 1 1507 1505
M  V30 1052 1 1506 1505
M  V30 1053 1 1509 1508
M  V30 1054 1 1510 1508
M  V30 1055 1 1513 1511
M  V30 1056 1 1512 1511
M  V30 1057 1 1515 1514
M  V30 1058 1 1514 1516
M  V30 1059 1 1519 1517
M  V30 1060 1 1517 1518
M  V30 1061 1 1520 1522
M  V30 1062 1 1520 1521
M  V30 1063 1 1524 1523
M  V30 1064 1 1523 1525
M  V30 1065 1 1527 1526
M  V30 1066 1 1526 1528
M  V30 1067 1 1531 1529
M  V30 1068 1 1529 1530
M  V30 1069 1 1533 1532
M  V30 1070 1 1532 1534
M  V30 1071 1 1536 1535
M  V30 1072 1 1535 1537
M  V30 1073 1 1539 1538
M  V30 1074 1 1540 1538
M  V30 1075 1 1542 1541
M  V30 1076 1 1541 1543
M  V30 1077 1 1546 1544
M  V30 1078 1 1544 1545
M  V30 1079 1 1549 1547
M  V30 1080 1 1547 1548
M  V30 1081 1 1551 1550
M  V30 1082 1 1550 1552
M  V30 1083 1 1553 1554
M  V30 1084 1 1553 1555
M  V30 1085 1 1556 1558
M  V30 1086 1 1556 1557
M  V30 1087 1 1560 1559
M  V30 1088 1 1559 1561
M  V30 1089 1 1564 1562
M  V30 1090 1 1563 1562
M  V30 1091 1 1565 1566
M  V30 1092 1 1565 1567
M  V30 1093 1 1569 1568
M  V30 1094 1 1568 1570
M  V30 1095 1 1572 1571
M  V30 1096 1 1571 1573
M  V30 1097 1 1575 1574
M  V30 1098 1 1576 1574
M  V30 1099 1 1577 1578
M  V30 1100 1 1577 1579
M  V30 1101 1 1580 1581
M  V30 1102 1 1580 1582
M  V30 1103 1 1584 1583
M  V30 1104 1 1585 1583
M  V30 1105 1 1586 1588
M  V30 1106 1 1586 1587
M  V30 1107 1 1589 1591
M  V30 1108 1 1589 1590
M  V30 1109 1 1594 1592
M  V30 1110 1 1592 1593
M  V30 1111 1 1597 1595
M  V30 1112 1 1595 1596
M  V30 1113 1 1599 1598
M  V30 1114 1 1598 1600
M  V30 1115 1 1603 1601
M  V30 1116 1 1601 1602
M  V30 1117 1 1606 1604
M  V30 1118 1 1604 1605
M  V30 1119 1 1607 1608
M  V30 1120 1 1607 1609
M  V30 1121 1 1611 1610
M  V30 1122 1 1610 1612
M  V30 1123 1 1613 1614
M  V30 1124 1 1613 1615
M  V30 1125 1 1618 1616
M  V30 1126 1 1616 1617
M  V30 1127 1 1621 1619
M  V30 1128 1 1620 1619
M  V30 1129 1 1624 1622
M  V30 1130 1 1622 1623
M  V30 1131 1 1625 1626
M  V30 1132 1 1625 1627
M  V30 1133 1 1628 1630
M  V30 1134 1 1628 1629
M  V30 1135 1 1632 1631
M  V30 1136 1 1631 1633
M  V30 1137 1 1635 1634
M  V30 1138 1 1634 1636
M  V30 1139 1 1638 1637
M  V30 1140 1 1637 1639
M  V30 1141 1 1641 1640
M  V30 1142 1 1640 1642
M  V30 1143 1 1643 1645
M  V30 1144 1 1643 1644
M  V30 1145 1 1648 1646
M  V30 1146 1 1647 1646
M  V30 1147 1 1650 1649
M  V30 1148 1 1649 1651
M  V30 1149 1 1653 1652
M  V30 1150 1 1652 1654
M  V30 1151 1 1657 1655
M  V30 1152 1 1655 1656
M  V30 1153 1 1659 1658
M  V30 1154 1 1658 1660
M  V30 1155 1 1661 1662
M  V30 1156 1 1661 1663
M  V30 1157 1 1666 1664
M  V30 1158 1 1664 1665
M  V30 1159 1 1669 1667
M  V30 1160 1 1667 1668
M  V30 1161 1 1672 1670
M  V30 1162 1 1670 1671
M  V30 1163 1 1675 1673
M  V30 1164 1 1673 1674
M  V30 1165 1 1678 1676
M  V30 1166 1 1676 1677
M  V30 1167 1 1681 1679
M  V30 1168 1 1680 1679
M  V30 1169 1 1684 1682
M  V30 1170 1 1682 1683
M  V30 1171 1 1686 1685
M  V30 1172 1 1685 1687
M  V30 1173 1 1688 1689
M  V30 1174 1 1688 1690
M  V30 1175 1 1693 1691
M  V30 1176 1 1691 1692
M  V30 1177 1 1694 1695
M  V30 1178 1 1694 1696
M  V30 1179 1 1697 1698
M  V30 1180 1 1697 1699
M  V30 1181 1 1701 1700
M  V30 1182 1 1700 1702
M  V30 1183 1 1705 1703
M  V30 1184 1 1703 1704
M  V30 1185 1 1708 1706
M  V30 1186 1 1706 1707
M  V30 1187 1 1710 1709
M  V30 1188 1 1709 1711
M  V30 1189 1 1714 1712
M  V30 1190 1 1712 1713
M  V30 1191 1 1716 1715
M  V30 1192 1 1717 1715
M  V30 1193 1 1719 1718
M  V30 1194 1 1718 1720
M  V30 1195 1 1723 1721
M  V30 1196 1 1722 1721
M  V30 1197 1 1726 1724
M  V30 1198 1 1724 1725
M  V30 1199 1 1729 1727
M  V30 1200 1 1727 1728
M  V30 1201 1 1730 1731
M  V30 1202 1 1730 1732
M  V30 1203 1 1733 1734
M  V30 1204 1 1733 1735
M  V30 1205 1 1736 1737
M  V30 1206 1 1736 1738
M  V30 1207 1 1741 1739
M  V30 1208 1 1739 1740
M  V30 1209 1 1743 1742
M  V30 1210 1 1744 1742
M  V30 1211 1 1747 1745
M  V30 1212 1 1745 1746
M  V30 1213 1 1750 1748
M  V30 1214 1 1748 1749
M  V30 1215 1 1752 1751
M  V30 1216 1 1751 1753
M  V30 1217 1 1756 1754
M  V30 1218 1 1754 1755
M  V30 1219 1 1759 1757
M  V30 1220 1 1757 1758
M  V30 1221 1 1762 1760
M  V30 1222 1 1760 1761
M  V30 1223 1 1763 1765
M  V30 1224 1 1763 1764
M  V30 1225 1 1766 1767
M  V30 1226 1 1766 1768
M  V30 1227 1 1770 1769
M  V30 1228 1 1769 1771
M  V30 1229 1 1773 1772
M  V30 1230 1 1772 1774
M  V30 1231 1 1776 1775
M  V30 1232 1 1775 1777
M  V30 1233 1 1779 1778
M  V30 1234 1 1778 1780
M  V30 1235 1 1783 1781
M  V30 1236 1 1782 1781
M  V30 1237 1 1786 1784
M  V30 1238 1 1784 1785
M  V30 1239 1 1789 1787
M  V30 1240 1 1787 1788
M  V30 1241 1 1791 1790
M  V30 1242 1 1790 1792
M  V30 1243 1 1794 1793
M  V30 1244 1 1795 1793
M  V30 1245 1 1797 1796
M  V30 1246 1 1796 1798
M  V30 1247 1 1801 1799
M  V30 1248 1 1799 1800
M  V30 1249 1 1803 1802
M  V30 1250 1 1802 1804
M  V30 1251 1 1807 1805
M  V30 1252 1 1805 1806
M  V30 1253 1 1810 1808
M  V30 1254 1 1809 1808
M  V30 1255 1 1812 1811
M  V30 1256 1 1811 1813
M  V30 1257 1 1816 1814
M  V30 1258 1 1815 1814
M  V30 1259 1 1818 1817
M  V30 1260 1 1819 1817
M  V30 1261 1 1820 1821
M  V30 1262 1 1820 1822
M  V30 1263 1 1824 1823
M  V30 1264 1 1823 1825
M  V30 1265 1 1828 1826
M  V30 1266 1 1826 1827
M  V30 1267 1 1831 1829
M  V30 1268 1 1829 1830
M  V30 1269 1 1834 1832
M  V30 1270 1 1832 1833
M  V30 1271 1 1835 1836
M  V30 1272 1 1835 1837
M  V30 1273 1 1840 1838
M  V30 1274 1 1838 1839
M  V30 1275 1 1843 1841
M  V30 1276 1 1841 1842
M  V30 1277 1 1846 1844
M  V30 1278 1 1845 1844
M  V30 1279 1 1848 1847
M  V30 1280 1 1847 1849
M  V30 1281 1 1850 1852
M  V30 1282 1 1850 1851
M  V30 1283 1 1855 1853
M  V30 1284 1 1853 1854
M  V30 1285 1 1857 1856
M  V30 1286 1 1856 1858
M  V30 1287 1 1860 1859
M  V30 1288 1 1861 1859
M  V30 1289 1 1863 1862
M  V30 1290 1 1864 1862
M  V30 1291 1 1866 1865
M  V30 1292 1 1865 1867
M  V30 1293 1 1869 1868
M  V30 1294 1 1868 1870
M  V30 1295 1 1872 1871
M  V30 1296 1 1871 1873
M  V30 1297 1 1875 1874
M  V30 1298 1 1876 1874
M  V30 1299 1 1877 1879
M  V30 1300 1 1877 1878
M  V30 1301 1 1881 1880
M  V30 1302 1 1880 1882
M  V30 1303 1 1885 1883
M  V30 1304 1 1883 1884
M  V30 1305 1 1888 1886
M  V30 1306 1 1887 1886
M  V30 1307 1 1890 1889
M  V30 1308 1 1891 1889
M  V30 1309 1 1892 1894
M  V30 1310 1 1892 1893
M  V30 1311 1 1896 1895
M  V30 1312 1 1895 1897
M  V30 1313 1 1899 1898
M  V30 1314 1 1898 1900
M  V30 1315 1 1902 1901
M  V30 1316 1 1901 1903
M  V30 1317 1 1906 1904
M  V30 1318 1 1904 1905
M  V30 1319 1 1908 1907
M  V30 1320 1 1909 1907
M  V30 1321 1 1911 1910
M  V30 1322 1 1910 1912
M  V30 1323 1 1915 1913
M  V30 1324 1 1914 1913
M  V30 1325 1 1918 1916
M  V30 1326 1 1917 1916
M  V30 1327 1 1920 1919
M  V30 1328 1 1919 1921
M  V30 1329 1 1923 1922
M  V30 1330 1 1924 1922
M  V30 1331 1 1926 1925
M  V30 1332 1 1925 1927
M  V30 1333 1 1930 1928
M  V30 1334 1 1928 1929
M  V30 1335 1 1931 1933
M  V30 1336 1 1931 1932
M  V30 1337 1 1934 1936
M  V30 1338 1 1934 1935
M  V30 1339 1 1939 1937
M  V30 1340 1 1938 1937
M  V30 1341 1 1940 1941
M  V30 1342 1 1940 1942
M  V30 1343 1 1945 1943
M  V30 1344 1 1943 1944
M  V30 1345 1 1948 1946
M  V30 1346 1 1946 1947
M  V30 1347 1 1951 1949
M  V30 1348 1 1949 1950
M  V30 1349 1 1953 1952
M  V30 1350 1 1954 1952
M  V30 1351 1 1957 1955
M  V30 1352 1 1955 1956
M  V30 1353 1 1959 1958
M  V30 1354 1 1960 1958
M  V30 1355 1 1962 1961
M  V30 1356 1 1961 1963
M  V30 1357 1 1965 1964
M  V30 1358 1 1964 1966
M  V30 1359 1 1969 1967
M  V30 1360 1 1968 1967
M  V30 1361 1 1971 1970
M  V30 1362 1 1970 1972
M  V30 1363 1 1974 1973
M  V30 1364 1 1973 1975
M  V30 1365 1 1977 1976
M  V30 1366 1 1976 1978
M  V30 1367 1 1980 1979
M  V30 1368 1 1979 1981
M  V30 1369 1 1983 1982
M  V30 1370 1 1984 1982
M  V30 1371 1 1986 1985
M  V30 1372 1 1985 1987
M  V30 1373 1 1988 1990
M  V30 1374 1 1988 1989
M  V30 1375 1 1991 1993
M  V30 1376 1 1991 1992
M  V30 1377 1 1995 1994
M  V30 1378 1 1996 1994
M  V30 1379 1 1998 1997
M  V30 1380 1 1997 1999
M  V30 1381 1 2002 2000
M  V30 1382 1 2000 2001
M  V30 1383 1 2005 2003
M  V30 1384 1 2003 2004
M  V30 1385 1 2008 2006
M  V30 1386 1 2007 2006
M  V30 1387 1 2010 2009
M  V30 1388 1 2009 2011
M  V30 1389 1 2014 2012
M  V30 1390 1 2013 2012
M  V30 1391 1 2017 2015
M  V30 1392 1 2016 2015
M  V30 1393 1 2018 2019
M  V30 1394 1 2018 2020
M  V30 1395 1 2022 2021
M  V30 1396 1 2021 2023
M  V30 1397 1 2024 2026
M  V30 1398 1 2024 2025
M  V30 1399 1 2029 2027
M  V30 1400 1 2027 2028
M  V30 1401 1 2032 2030
M  V30 1402 1 2030 2031
M  V30 1403 1 2035 2033
M  V30 1404 1 2033 2034
M  V30 1405 1 2036 2037
M  V30 1406 1 2036 2038
M  V30 1407 1 2041 2039
M  V30 1408 1 2039 2040
M  V30 1409 1 2043 2042
M  V30 1410 1 2042 2044
M  V30 1411 1 2046 2045
M  V30 1412 1 2045 2047
M  V30 1413 1 2050 2048
M  V30 1414 1 2048 2049
M  V30 1415 1 2053 2051
M  V30 1416 1 2052 2051
M  V30 1417 1 2054 2056
M  V30 1418 1 2054 2055
M  V30 1419 1 2058 2057
M  V30 1420 1 2057 2059
M  V30 1421 1 2061 2060
M  V30 1422 1 2060 2062
M  V30 1423 1 2065 2063
M  V30 1424 1 2063 2064
M  V30 1425 1 2067 2066
M  V30 1426 1 2066 2068
M  V30 1427 1 2069 2071
M  V30 1428 1 2069 2070
M  V30 1429 1 2072 2073
M  V30 1430 1 2072 2074
M  V30 1431 1 2076 2075
M  V30 1432 1 2075 2077
M  V30 1433 1 2080 2078
M  V30 1434 1 2078 2079
M  V30 1435 1 2082 2081
M  V30 1436 1 2081 2083
M  V30 1437 1 2086 2084
M  V30 1438 1 2084 2085
M  V30 1439 1 2088 2087
M  V30 1440 1 2087 2089
M  V30 1441 1 2091 2090
M  V30 1442 1 2090 2092
M  V30 1443 1 2094 2093
M  V30 1444 1 2095 2093
M  V30 1445 1 2096 2098
M  V30 1446 1 2096 2097
M  V30 1447 1 2101 2099
M  V30 1448 1 2099 2100
M  V30 1449 1 2102 2104
M  V30 1450 1 2102 2103
M  V30 1451 1 2105 2106
M  V30 1452 1 2105 2107
M  V30 1453 1 2109 2108
M  V30 1454 1 2110 2108
M  V30 1455 1 2111 2113
M  V30 1456 1 2111 2112
M  V30 1457 1 2116 2114
M  V30 1458 1 2114 2115
M  V30 1459 1 2119 2117
M  V30 1460 1 2117 2118
M  V30 1461 1 2121 2120
M  V30 1462 1 2120 2122
M  V30 1463 1 2125 2123
M  V30 1464 1 2124 2123
M  V30 1465 1 2128 2126
M  V30 1466 1 2127 2126
M  V30 1467 1 2131 2129
M  V30 1468 1 2129 2130
M  V30 1469 1 2134 2132
M  V30 1470 1 2133 2132
M  V30 1471 1 2136 2135
M  V30 1472 1 2135 2137
M  V30 1473 1 2139 2138
M  V30 1474 1 2140 2138
M  V30 1475 1 2142 2141
M  V30 1476 1 2141 2143
M  V30 1477 1 2144 2146
M  V30 1478 1 2144 2145
M  V30 1479 1 2147 2149
M  V30 1480 1 2147 2148
M  V30 1481 1 2151 2150
M  V30 1482 1 2150 2152
M  V30 1483 1 2155 2153
M  V30 1484 1 2153 2154
M  V30 1485 1 2158 2156
M  V30 1486 1 2156 2157
M  V30 1487 1 2160 2159
M  V30 1488 1 2159 2161
M  V30 1489 1 2163 2162
M  V30 1490 1 2162 2164
M  V30 1491 1 2167 2165
M  V30 1492 1 2165 2166
M  V30 1493 1 2169 2168
M  V30 1494 1 2168 2170
M  V30 1495 1 2173 2171
M  V30 1496 1 2171 2172
M  V30 1497 1 2175 2174
M  V30 1498 1 2174 2176
M  V30 1499 1 2177 2178
M  V30 1500 1 2177 2179
M  V30 1501 1 2181 2180
M  V30 1502 1 2180 2182
M  V30 1503 1 2185 2183
M  V30 1504 1 2183 2184
M  V30 1505 1 2187 2186
M  V30 1506 1 2186 2188
M  V30 1507 1 2190 2189
M  V30 1508 1 2189 2191
M  V30 1509 1 2193 2192
M  V30 1510 1 2192 2194
M  V30 1511 1 2197 2195
M  V30 1512 1 2195 2196
M  V30 1513 1 2200 2198
M  V30 1514 1 2198 2199
M  V30 1515 1 2203 2201
M  V30 1516 1 2202 2201
M  V30 1517 1 2206 2204
M  V30 1518 1 2204 2205
M  V30 1519 1 2208 2207
M  V30 1520 1 2207 2209
M  V30 1521 1 2211 2210
M  V30 1522 1 2210 2212
M  V30 1523 1 2215 2213
M  V30 1524 1 2214 2213
M  V30 1525 1 2216 2218
M  V30 1526 1 2216 2217
M  V30 1527 1 2221 2219
M  V30 1528 1 2219 2220
M  V30 1529 1 2222 2224
M  V30 1530 1 2222 2223
M  V30 1531 1 2227 2225
M  V30 1532 1 2225 2226
M  V30 1533 1 2230 2228
M  V30 1534 1 2228 2229
M  V30 1535 1 2231 2232
M  V30 1536 1 2231 2233
M  V30 1537 1 2235 2234
M  V30 1538 1 2234 2236
M  V30 1539 1 2239 2237
M  V30 1540 1 2237 2238
M  V30 1541 1 2242 2240
M  V30 1542 1 2240 2241
M  V30 1543 1 2243 2245
M  V30 1544 1 2243 2244
M  V30 1545 1 2246 2247
M  V30 1546 1 2246 2248
M  V30 1547 1 2251 2249
M  V30 1548 1 2249 2250
M  V30 1549 1 2253 2252
M  V30 1550 1 2252 2254
M  V30 1551 1 2257 2255
M  V30 1552 1 2255 2256
M  V30 1553 1 2259 2258
M  V30 1554 1 2258 2260
M  V30 1555 1 2262 2261
M  V30 1556 1 2261 2263
M  V30 1557 1 2265 2264
M  V30 1558 1 2264 2266
M  V30 1559 1 2269 2267
M  V30 1560 1 2267 2268
M  V30 1561 1 2272 2270
M  V30 1562 1 2270 2271
M  V30 1563 1 2274 2273
M  V30 1564 1 2273 2275
M  V30 1565 1 2277 2276
M  V30 1566 1 2276 2278
M  V30 1567 1 2281 2279
M  V30 1568 1 2279 2280
M  V30 1569 1 2284 2282
M  V30 1570 1 2283 2282
M  V30 1571 1 2287 2285
M  V30 1572 1 2285 2286
M  V30 1573 1 2290 2288
M  V30 1574 1 2288 2289
M  V30 1575 1 2293 2291
M  V30 1576 1 2291 2292
M  V30 1577 1 2294 2296
M  V30 1578 1 2294 2295
M  V30 1579 1 2298 2297
M  V30 1580 1 2299 2297
M  V30 1581 1 2302 2300
M  V30 1582 1 2300 2301
M  V30 1583 1 2304 2303
M  V30 1584 1 2303 2305
M  V30 1585 1 2308 2306
M  V30 1586 1 2306 2307
M  V30 1587 1 2309 2310
M  V30 1588 1 2309 2311
M  V30 1589 1 2314 2312
M  V30 1590 1 2312 2313
M  V30 1591 1 2316 2315
M  V30 1592 1 2315 2317
M  V30 1593 1 2320 2318
M  V30 1594 1 2318 2319
M  V30 1595 1 2323 2321
M  V30 1596 1 2322 2321
M  V30 1597 1 2326 2324
M  V30 1598 1 2324 2325
M  V30 1599 1 2328 2327
M  V30 1600 1 2327 2329
M  V30 1601 1 2331 2330
M  V30 1602 1 2330 2332
M  V30 1603 1 2335 2333
M  V30 1604 1 2334 2333
M  V30 1605 1 2338 2336
M  V30 1606 1 2336 2337
M  V30 1607 1 2340 2339
M  V30 1608 1 2339 2341
M  V30 1609 1 2344 2342
M  V30 1610 1 2342 2343
M  V30 1611 1 2347 2345
M  V30 1612 1 2345 2346
M  V30 1613 1 2348 2350
M  V30 1614 1 2348 2349
M  V30 1615 1 2352 2351
M  V30 1616 1 2351 2353
M  V30 1617 1 2356 2354
M  V30 1618 1 2355 2354
M  V30 1619 1 2357 2359
M  V30 1620 1 2357 2358
M  V30 1621 1 2362 2360
M  V30 1622 1 2360 2361
M  V30 1623 1 2365 2363
M  V30 1624 1 2363 2364
M  V30 1625 1 2368 2366
M  V30 1626 1 2367 2366
M  V30 1627 1 2371 2369
M  V30 1628 1 2369 2370
M  V30 1629 1 2374 2372
M  V30 1630 1 2372 2373
M  V30 1631 1 2376 2375
M  V30 1632 1 2375 2377
M  V30 1633 1 2378 2380
M  V30 1634 1 2378 2379
M  V30 1635 1 2382 2381
M  V30 1636 1 2383 2381
M  V30 1637 1 2385 2384
M  V30 1638 1 2386 2384
M  V30 1639 1 2389 2387
M  V30 1640 1 2387 2388
M  V30 1641 1 2392 2390
M  V30 1642 1 2390 2391
M  V30 1643 1 2394 2393
M  V30 1644 1 2395 2393
M  V30 1645 1 2397 2396
M  V30 1646 1 2396 2398
M  V30 1647 1 2400 2399
M  V30 1648 1 2399 2401
M  V30 1649 1 2402 2403
M  V30 1650 1 2402 2404
M  V30 1651 1 2407 2405
M  V30 1652 1 2406 2405
M  V30 1653 1 2409 2408
M  V30 1654 1 2408 2410
M  V30 1655 1 2413 2411
M  V30 1656 1 2411 2412
M  V30 1657 1 2416 2414
M  V30 1658 1 2414 2415
M  V30 1659 1 2418 2417
M  V30 1660 1 2417 2419
M  V30 1661 1 2422 2420
M  V30 1662 1 2420 2421
M  V30 1663 1 2423 2424
M  V30 1664 1 2423 2425
M  V30 1665 1 2427 2426
M  V30 1666 1 2426 2428
M  V30 1667 1 2431 2429
M  V30 1668 1 2429 2430
M  V30 1669 1 2432 2434
M  V30 1670 1 2432 2433
M  V30 1671 1 2436 2435
M  V30 1672 1 2437 2435
M  V30 1673 1 2439 2438
M  V30 1674 1 2438 2440
M  V30 1675 1 2442 2441
M  V30 1676 1 2441 2443
M  V30 1677 1 2445 2444
M  V30 1678 1 2446 2444
M  V30 1679 1 2448 2447
M  V30 1680 1 2447 2449
M  V30 1681 1 2452 2450
M  V30 1682 1 2450 2451
M  V30 1683 1 2455 2453
M  V30 1684 1 2453 2454
M  V30 1685 1 2456 2457
M  V30 1686 1 2456 2458
M  V30 1687 1 2459 2461
M  V30 1688 1 2459 2460
M  V30 1689 1 2462 2463
M  V30 1690 1 2462 2464
M  V30 1691 1 2467 2465
M  V30 1692 1 2466 2465
M  V30 1693 1 2468 2469
M  V30 1694 1 2468 2470
M  V30 1695 1 2473 2471
M  V30 1696 1 2471 2472
M  V30 1697 1 2476 2474
M  V30 1698 1 2475 2474
M  V30 1699 1 2479 2477
M  V30 1700 1 2477 2478
M  V30 1701 1 2481 2480
M  V30 1702 1 2482 2480
M  V30 1703 1 2485 2483
M  V30 1704 1 2483 2484
M  V30 1705 1 2488 2486
M  V30 1706 1 2486 2487
M  V30 1707 1 2489 2491
M  V30 1708 1 2489 2490
M  V30 1709 1 2494 2492
M  V30 1710 1 2492 2493
M  V30 1711 1 2497 2495
M  V30 1712 1 2495 2496
M  V30 1713 1 2498 2499
M  V30 1714 1 2498 2500
M  V30 1715 1 2501 2503
M  V30 1716 1 2501 2502
M  V30 1717 1 2506 2504
M  V30 1718 1 2504 2505
M  V30 1719 1 2508 2507
M  V30 1720 1 2507 2509
M  V30 1721 1 2512 2510
M  V30 1722 1 2510 2511
M  V30 1723 1 2514 2513
M  V30 1724 1 2513 2515
M  V30 1725 1 2517 2516
M  V30 1726 1 2516 2518
M  V30 1727 1 2520 2519
M  V30 1728 1 2521 2519
M  V30 1729 1 2524 2522
M  V30 1730 1 2522 2523
M  V30 1731 1 2526 2525
M  V30 1732 1 2525 2527
M  V30 1733 1 2528 2530
M  V30 1734 1 2528 2529
M  V30 1735 1 2532 2531
M  V30 1736 1 2531 2533
M  V30 1737 1 2534 2535
M  V30 1738 1 2534 2536
M  V30 1739 1 2537 2538
M  V30 1740 1 2537 2539
M  V30 1741 1 2541 2540
M  V30 1742 1 2540 2542
M  V30 1743 1 2544 2543
M  V30 1744 1 2543 2545
M  V30 1745 1 2547 2546
M  V30 1746 1 2548 2546
M  V30 1747 1 2549 2550
M  V30 1748 1 2549 2551
M  V30 1749 1 2554 2552
M  V30 1750 1 2552 2553
M  V30 1751 1 2556 2555
M  V30 1752 1 2557 2555
M  V30 1753 1 2560 2558
M  V30 1754 1 2558 2559
M  V30 1755 1 2561 2562
M  V30 1756 1 2561 2563
M  V30 1757 1 2564 2565
M  V30 1758 1 2564 2566
M  V30 1759 1 2569 2567
M  V30 1760 1 2567 2568
M  V30 1761 1 2571 2570
M  V30 1762 1 2570 2572
M  V30 1763 1 2575 2573
M  V30 1764 1 2574 2573
M  V30 1765 1 2577 2576
M  V30 1766 1 2576 2578
M  V30 1767 1 2581 2579
M  V30 1768 1 2579 2580
M  V30 1769 1 2584 2582
M  V30 1770 1 2582 2583
M  V30 1771 1 2585 2586
M  V30 1772 1 2585 2587
M  V30 1773 1 2588 2589
M  V30 1774 1 2588 2590
M  V30 1775 1 2592 2591
M  V30 1776 1 2593 2591
M  V30 1777 1 2594 2595
M  V30 1778 1 2594 2596
M  V30 1779 1 2599 2597
M  V30 1780 1 2597 2598
M  V30 1781 1 2600 2602
M  V30 1782 1 2600 2601
M  V30 1783 1 2603 2605
M  V30 1784 1 2603 2604
M  V30 1785 1 2606 2608
M  V30 1786 1 2606 2607
M  V30 1787 1 2611 2609
M  V30 1788 1 2609 2610
M  V30 1789 1 2613 2612
M  V30 1790 1 2612 2614
M  V30 1791 1 2616 2615
M  V30 1792 1 2615 2617
M  V30 1793 1 2618 2620
M  V30 1794 1 2618 2619
M  V30 1795 1 2622 2621
M  V30 1796 1 2621 2623
M  V30 1797 1 2625 2624
M  V30 1798 1 2624 2626
M  V30 1799 1 2628 2627
M  V30 1800 1 2627 2629
M  V30 1801 1 2632 2630
M  V30 1802 1 2630 2631
M  V30 1803 1 2634 2633
M  V30 1804 1 2633 2635
M  V30 1805 1 2637 2636
M  V30 1806 1 2638 2636
M  V30 1807 1 2641 2639
M  V30 1808 1 2639 2640
M  V30 1809 1 2642 2643
M  V30 1810 1 2642 2644
M  V30 1811 1 2645 2647
M  V30 1812 1 2645 2646
M  V30 1813 1 2649 2648
M  V30 1814 1 2650 2648
M  V30 1815 1 2653 2651
M  V30 1816 1 2651 2652
M  V30 1817 1 2655 2654
M  V30 1818 1 2654 2656
M  V30 1819 1 2658 2657
M  V30 1820 1 2657 2659
M  V30 1821 1 2662 2660
M  V30 1822 1 2660 2661
M  V30 1823 1 2665 2663
M  V30 1824 1 2663 2664
M  V30 1825 1 2668 2666
M  V30 1826 1 2666 2667
M  V30 1827 1 2670 2669
M  V30 1828 1 2671 2669
M  V30 1829 1 2673 2672
M  V30 1830 1 2672 2674
M  V30 1831 1 2677 2675
M  V30 1832 1 2676 2675
M  V30 1833 1 2679 2678
M  V30 1834 1 2678 2680
M  V30 1835 1 2683 2681
M  V30 1836 1 2681 2682
M  V30 1837 1 2685 2684
M  V30 1838 1 2684 2686
M  V30 1839 1 2688 2687
M  V30 1840 1 2687 2689
M  V30 1841 1 2692 2690
M  V30 1842 1 2690 2691
M  V30 1843 1 2695 2693
M  V30 1844 1 2693 2694
M  V30 1845 1 2697 2696
M  V30 1846 1 2696 2698
M  V30 1847 1 2701 2699
M  V30 1848 1 2700 2699
M  V30 1849 1 2704 2702
M  V30 1850 1 2702 2703
M  V30 1851 1 2706 2705
M  V30 1852 1 2707 2705
M  V30 1853 1 2710 2708
M  V30 1854 1 2708 2709
M  V30 1855 1 2712 2711
M  V30 1856 1 2711 2713
M  V30 1857 1 2716 2714
M  V30 1858 1 2714 2715
M  V30 1859 1 2719 2717
M  V30 1860 1 2718 2717
M  V30 1861 1 2721 2720
M  V30 1862 1 2720 2722
M  V30 1863 1 2723 2725
M  V30 1864 1 2723 2724
M  V30 1865 1 2727 2726
M  V30 1866 1 2726 2728
M  V30 1867 1 2731 2729
M  V30 1868 1 2729 2730
M  V30 1869 1 2734 2732
M  V30 1870 1 2732 2733
M  V30 1871 1 2735 2737
M  V30 1872 1 2735 2736
M  V30 1873 1 2738 2740
M  V30 1874 1 2738 2739
M  V30 1875 1 2743 2741
M  V30 1876 1 2741 2742
M  V30 1877 1 2745 2744
M  V30 1878 1 2744 2746
M  V30 1879 1 2748 2747
M  V30 1880 1 2747 2749
M  V30 1881 1 2751 2750
M  V30 1882 1 2752 2750
M  V30 1883 1 2755 2753
M  V30 1884 1 2753 2754
M  V30 1885 1 2756 2757
M  V30 1886 1 2756 2758
M  V30 1887 1 2761 2759
M  V30 1888 1 2760 2759
M  V30 1889 1 2763 2762
M  V30 1890 1 2762 2764
M  V30 1891 1 2766 2765
M  V30 1892 1 2767 2765
M  V30 1893 1 2770 2768
M  V30 1894 1 2768 2769
M  V30 1895 1 2772 2771
M  V30 1896 1 2771 2773
M  V30 1897 1 2775 2774
M  V30 1898 1 2774 2776
M  V30 1899 1 2779 2777
M  V30 1900 1 2778 2777
M  V30 1901 1 2782 2780
M  V30 1902 1 2780 2781
M  V30 1903 1 2784 2783
M  V30 1904 1 2783 2785
M  V30 1905 1 2788 2786
M  V30 1906 1 2787 2786
M  V30 1907 1 2790 2789
M  V30 1908 1 2791 2789
M  V30 1909 1 2794 2792
M  V30 1910 1 2792 2793
M  V30 1911 1 2795 2796
M  V30 1912 1 2795 2797
M  V30 1913 1 2800 2798
M  V30 1914 1 2798 2799
M  V30 1915 1 2803 2801
M  V30 1916 1 2801 2802
M  V30 1917 1 2805 2804
M  V30 1918 1 2806 2804
M  V30 1919 1 2809 2807
M  V30 1920 1 2807 2808
M  V30 1921 1 2812 2810
M  V30 1922 1 2810 2811
M  V30 1923 1 2814 2813
M  V30 1924 1 2815 2813
M  V30 1925 1 2818 2816
M  V30 1926 1 2817 2816
M  V30 1927 1 2820 2819
M  V30 1928 1 2821 2819
M  V30 1929 1 2822 2824
M  V30 1930 1 2822 2823
M  V30 1931 1 2825 2826
M  V30 1932 1 2825 2827
M  V30 1933 1 2828 2829
M  V30 1934 1 2828 2830
M  V30 1935 1 2831 2833
M  V30 1936 1 2831 2832
M  V30 1937 1 2836 2834
M  V30 1938 1 2834 2835
M  V30 1939 1 2839 2837
M  V30 1940 1 2838 2837
M  V30 1941 1 2841 2840
M  V30 1942 1 2840 2842
M  V30 1943 1 2844 2843
M  V30 1944 1 2843 2845
M  V30 1945 1 2847 2846
M  V30 1946 1 2846 2848
M  V30 1947 1 2849 2850
M  V30 1948 1 2849 2851
M  V30 1949 1 2852 2854
M  V30 1950 1 2852 2853
M  V30 1951 1 2857 2855
M  V30 1952 1 2855 2856
M  V30 1953 1 2860 2858
M  V30 1954 1 2858 2859
M  V30 1955 1 2863 2861
M  V30 1956 1 2861 2862
M  V30 1957 1 2864 2866
M  V30 1958 1 2864 2865
M  V30 1959 1 2867 2869
M  V30 1960 1 2867 2868
M  V30 1961 1 2871 2870
M  V30 1962 1 2870 2872
M  V30 1963 1 2873 2875
M  V30 1964 1 2873 2874
M  V30 1965 1 2878 2876
M  V30 1966 1 2876 2877
M  V30 1967 1 2881 2879
M  V30 1968 1 2879 2880
M  V30 1969 1 2883 2882
M  V30 1970 1 2884 2882
M  V30 1971 1 2887 2885
M  V30 1972 1 2886 2885
M  V30 1973 1 2889 2888
M  V30 1974 1 2888 2890
M  V30 1975 1 2891 2892
M  V30 1976 1 2891 2893
M  V30 1977 1 2894 2896
M  V30 1978 1 2894 2895
M  V30 1979 1 2898 2897
M  V30 1980 1 2897 2899
M  V30 1981 1 2902 2900
M  V30 1982 1 2901 2900
M  V30 1983 1 2903 2905
M  V30 1984 1 2903 2904
M  V30 1985 1 2908 2906
M  V30 1986 1 2906 2907
M  V30 1987 1 2910 2909
M  V30 1988 1 2909 2911
M  V30 1989 1 2912 2914
M  V30 1990 1 2912 2913
M  V30 1991 1 2917 2915
M  V30 1992 1 2915 2916
M  V30 1993 1 2920 2918
M  V30 1994 1 2918 2919
M  V30 1995 1 2923 2921
M  V30 1996 1 2921 2922
M  V30 1997 1 2925 2924
M  V30 1998 1 2924 2926
M  V30 1999 1 2929 2927
M  V30 2000 1 2927 2928
M  V30 2001 1 2931 2930
M  V30 2002 1 2930 2932
M  V30 2003 1 2934 2933
M  V30 2004 1 2933 2935
M  V30 2005 1 2937 2936
M  V30 2006 1 2936 2938
M  V30 2007 1 2941 2939
M  V30 2008 1 2939 2940
M  V30 2009 1 2944 2942
M  V30 2010 1 2942 2943
M  V30 2011 1 2947 2945
M  V30 2012 1 2945 2946
M  V30 2013 1 2949 2948
M  V30 2014 1 2948 2950
M  V30 2015 1 2953 2951
M  V30 2016 1 2951 2952
M  V30 2017 1 2956 2954
M  V30 2018 1 2954 2955
M  V30 2019 1 2959 2957
M  V30 2020 1 2957 2958
M  V30 2021 1 2960 2961
M  V30 2022 1 2960 2962
M  V30 2023 1 2965 2963
M  V30 2024 1 2963 2964
M  V30 2025 1 2968 2966
M  V30 2026 1 2967 2966
M  V30 2027 1 2971 2969
M  V30 2028 1 2970 2969
M  V30 2029 1 2974 2972
M  V30 2030 1 2973 2972
M  V30 2031 1 2976 2975
M  V30 2032 1 2975 2977
M  V30 2033 1 2979 2978
M  V30 2034 1 2978 2980
M  V30 2035 1 2982 2981
M  V30 2036 1 2983 2981
M  V30 2037 1 2985 2984
M  V30 2038 1 2984 2986
M  V30 2039 1 2989 2987
M  V30 2040 1 2987 2988
M  V30 2041 1 2990 2991
M  V30 2042 1 2990 2992
M  V30 2043 1 2994 2993
M  V30 2044 1 2993 2995
M  V30 2045 1 2998 2996
M  V30 2046 1 2997 2996
M  V30 2047 1 3000 2999
M  V30 2048 1 3001 2999
M  V30 2049 1 3004 3002
M  V30 2050 1 3002 3003
M  V30 2051 1 3007 3005
M  V30 2052 1 3005 3006
M  V30 2053 1 3009 3008
M  V30 2054 1 3008 3010
M  V30 2055 1 3013 3011
M  V30 2056 1 3012 3011
M  V30 2057 1 3016 3014
M  V30 2058 1 3014 3015
M  V30 2059 1 3018 3017
M  V30 2060 1 3017 3019
M  V30 2061 1 3021 3020
M  V30 2062 1 3022 3020
M  V30 2063 1 3025 3023
M  V30 2064 1 3023 3024
M  V30 2065 1 3026 3027
M  V30 2066 1 3026 3028
M  V30 2067 1 3031 3029
M  V30 2068 1 3029 3030
M  V30 2069 1 3034 3032
M  V30 2070 1 3032 3033
M  V30 2071 1 3036 3035
M  V30 2072 1 3035 3037
M  V30 2073 1 3040 3038
M  V30 2074 1 3038 3039
M  V30 2075 1 3041 3042
M  V30 2076 1 3041 3043
M  V30 2077 1 3044 3046
M  V30 2078 1 3044 3045
M  V30 2079 1 3048 3047
M  V30 2080 1 3047 3049
M  V30 2081 1 3052 3050
M  V30 2082 1 3050 3051
M  V30 2083 1 3055 3053
M  V30 2084 1 3054 3053
M  V30 2085 1 3057 3056
M  V30 2086 1 3056 3058
M  V30 2087 1 3061 3059
M  V30 2088 1 3060 3059
M  V30 2089 1 3064 3062
M  V30 2090 1 3062 3063
M  V30 2091 1 3065 3067
M  V30 2092 1 3065 3066
M  V30 2093 1 3070 3068
M  V30 2094 1 3069 3068
M  V30 2095 1 3073 3071
M  V30 2096 1 3071 3072
M  V30 2097 1 3075 3074
M  V30 2098 1 3074 3076
M  V30 2099 1 3078 3077
M  V30 2100 1 3077 3079
M  V30 2101 1 3080 3082
M  V30 2102 1 3080 3081
M  V30 2103 1 3085 3083
M  V30 2104 1 3083 3084
M  V30 2105 1 3087 3086
M  V30 2106 1 3086 3088
M  V30 2107 1 3091 3089
M  V30 2108 1 3089 3090
M  V30 2109 1 3093 3092
M  V30 2110 1 3094 3092
M  V30 2111 1 3096 3095
M  V30 2112 1 3095 3097
M  V30 2113 1 3099 3098
M  V30 2114 1 3098 3100
M  V30 2115 1 3101 3103
M  V30 2116 1 3101 3102
M  V30 2117 1 3105 3104
M  V30 2118 1 3106 3104
M  V30 2119 1 3109 3107
M  V30 2120 1 3108 3107
M  V30 2121 1 3110 3111
M  V30 2122 1 3110 3112
M  V30 2123 1 3115 3113
M  V30 2124 1 3113 3114
M  V30 2125 1 3117 3116
M  V30 2126 1 3118 3116
M  V30 2127 1 3120 3119
M  V30 2128 1 3119 3121
M  V30 2129 1 3123 3122
M  V30 2130 1 3122 3124
M  V30 2131 1 3127 3125
M  V30 2132 1 3126 3125
M  V30 2133 1 3128 3129
M  V30 2134 1 3128 3130
M  V30 2135 1 3132 3131
M  V30 2136 1 3131 3133
M  V30 2137 1 3136 3134
M  V30 2138 1 3134 3135
M  V30 2139 1 3137 3139
M  V30 2140 1 3137 3138
M  V30 2141 1 3142 3140
M  V30 2142 1 3140 3141
M  V30 2143 1 3144 3143
M  V30 2144 1 3143 3145
M  V30 2145 1 3147 3146
M  V30 2146 1 3146 3148
M  V30 2147 1 3150 3149
M  V30 2148 1 3151 3149
M  V30 2149 1 3153 3152
M  V30 2150 1 3152 3154
M  V30 2151 1 3157 3155
M  V30 2152 1 3155 3156
M  V30 2153 1 3159 3158
M  V30 2154 1 3158 3160
M  V30 2155 1 3163 3161
M  V30 2156 1 3161 3162
M  V30 2157 1 3166 3164
M  V30 2158 1 3165 3164
M  V30 2159 1 3169 3167
M  V30 2160 1 3167 3168
M  V30 2161 1 3171 3170
M  V30 2162 1 3170 3172
M  V30 2163 1 3174 3173
M  V30 2164 1 3175 3173
M  V30 2165 1 3178 3176
M  V30 2166 1 3177 3176
M  V30 2167 1 3180 3179
M  V30 2168 1 3179 3181
M  V30 2169 1 3182 3184
M  V30 2170 1 3182 3183
M  V30 2171 1 3187 3185
M  V30 2172 1 3185 3186
M  V30 2173 1 3190 3188
M  V30 2174 1 3188 3189
M  V30 2175 1 3191 3193
M  V30 2176 1 3191 3192
M  V30 2177 1 3195 3194
M  V30 2178 1 3194 3196
M  V30 2179 1 3199 3197
M  V30 2180 1 3197 3198
M  V30 2181 1 3201 3200
M  V30 2182 1 3202 3200
M  V30 2183 1 3204 3203
M  V30 2184 1 3205 3203
M  V30 2185 1 3208 3206
M  V30 2186 1 3206 3207
M  V30 2187 1 3209 3211
M  V30 2188 1 3209 3210
M  V30 2189 1 3213 3212
M  V30 2190 1 3212 3214
M  V30 2191 1 3216 3215
M  V30 2192 1 3215 3217
M  V30 2193 1 3218 3219
M  V30 2194 1 3218 3220
M  V30 2195 1 3221 3222
M  V30 2196 1 3221 3223
M  V30 2197 1 3226 3224
M  V30 2198 1 3224 3225
M  V30 2199 1 3229 3227
M  V30 2200 1 3227 3228
M  V30 2201 1 3232 3230
M  V30 2202 1 3231 3230
M  V30 2203 1 3234 3233
M  V30 2204 1 3235 3233
M  V30 2205 1 3237 3236
M  V30 2206 1 3236 3238
M  V30 2207 1 3241 3239
M  V30 2208 1 3240 3239
M  V30 2209 1 3243 3242
M  V30 2210 1 3242 3244
M  V30 2211 1 3246 3245
M  V30 2212 1 3245 3247
M  V30 2213 1 3249 3248
M  V30 2214 1 3248 3250
M  V30 2215 1 3253 3251
M  V30 2216 1 3251 3252
M  V30 2217 1 3256 3254
M  V30 2218 1 3255 3254
M  V30 2219 1 3258 3257
M  V30 2220 1 3257 3259
M  V30 2221 1 3261 3260
M  V30 2222 1 3260 3262
M  V30 2223 1 3264 3263
M  V30 2224 1 3265 3263
M  V30 2225 1 3268 3266
M  V30 2226 1 3266 3267
M  V30 2227 1 3270 3269
M  V30 2228 1 3269 3271
M  V30 2229 1 3274 3272
M  V30 2230 1 3273 3272
M  V30 2231 1 3277 3275
M  V30 2232 1 3275 3276
M  V30 2233 1 3280 3278
M  V30 2234 1 3279 3278
M  V30 2235 1 3283 3281
M  V30 2236 1 3281 3282
M  V30 2237 1 3285 3284
M  V30 2238 1 3284 3286
M  V30 2239 1 3288 3287
M  V30 2240 1 3289 3287
M  V30 2241 1 3292 3290
M  V30 2242 1 3291 3290
M  V30 2243 1 3295 3293
M  V30 2244 1 3293 3294
M  V30 2245 1 3297 3296
M  V30 2246 1 3296 3298
M  V30 2247 1 3299 3300
M  V30 2248 1 3299 3301
M  V30 2249 1 3303 3302
M  V30 2250 1 3302 3304
M  V30 2251 1 3306 3305
M  V30 2252 1 3305 3307
M  V30 2253 1 3309 3308
M  V30 2254 1 3308 3310
M  V30 2255 1 3311 3313
M  V30 2256 1 3311 3312
M  V30 2257 1 3316 3314
M  V30 2258 1 3314 3315
M  V30 2259 1 3319 3317
M  V30 2260 1 3317 3318
M  V30 2261 1 3322 3320
M  V30 2262 1 3321 3320
M  V30 2263 1 3324 3323
M  V30 2264 1 3323 3325
M  V30 2265 1 3327 3326
M  V30 2266 1 3326 3328
M  V30 2267 1 3330 3329
M  V30 2268 1 3329 3331
M  V30 2269 1 3333 3332
M  V30 2270 1 3334 3332
M  V30 2271 1 3335 3337
M  V30 2272 1 3335 3336
M  V30 2273 1 3340 3338
M  V30 2274 1 3339 3338
M  V30 2275 1 3342 3341
M  V30 2276 1 3341 3343
M  V30 2277 1 3344 3346
M  V30 2278 1 3344 3345
M  V30 2279 1 3348 3347
M  V30 2280 1 3349 3347
M  V30 2281 1 3352 3350
M  V30 2282 1 3350 3351
M  V30 2283 1 3355 3353
M  V30 2284 1 3353 3354
M  V30 2285 1 3356 3357
M  V30 2286 1 3356 3358
M  V30 2287 1 3361 3359
M  V30 2288 1 3359 3360
M  V30 2289 1 3363 3362
M  V30 2290 1 3362 3364
M  V30 2291 1 3365 3366
M  V30 2292 1 3365 3367
M  V30 2293 1 3370 3368
M  V30 2294 1 3368 3369
M  V30 2295 1 3372 3371
M  V30 2296 1 3371 3373
M  V30 2297 1 3376 3374
M  V30 2298 1 3374 3375
M  V30 2299 1 3378 3377
M  V30 2300 1 3377 3379
M  V30 2301 1 3381 3380
M  V30 2302 1 3380 3382
M  V30 2303 1 3385 3383
M  V30 2304 1 3384 3383
M  V30 2305 1 3387 3386
M  V30 2306 1 3388 3386
M  V30 2307 1 3391 3389
M  V30 2308 1 3389 3390
M  V30 2309 1 3392 3393
M  V30 2310 1 3392 3394
M  V30 2311 1 3395 3397
M  V30 2312 1 3395 3396
M  V30 2313 1 3399 3398
M  V30 2314 1 3398 3400
M  V30 2315 1 3402 3401
M  V30 2316 1 3401 3403
M  V30 2317 1 3405 3404
M  V30 2318 1 3404 3406
M  V30 2319 1 3407 3409
M  V30 2320 1 3407 3408
M  V30 2321 1 3412 3410
M  V30 2322 1 3411 3410
M  V30 2323 1 3413 3415
M  V30 2324 1 3413 3414
M  V30 2325 1 3418 3416
M  V30 2326 1 3416 3417
M  V30 2327 1 3419 3421
M  V30 2328 1 3419 3420
M  V30 2329 1 3423 3422
M  V30 2330 1 3424 3422
M  V30 2331 1 3426 3425
M  V30 2332 1 3427 3425
M  V30 2333 1 3430 3428
M  V30 2334 1 3428 3429
M  V30 2335 1 3433 3431
M  V30 2336 1 3432 3431
M  V30 2337 1 3436 3434
M  V30 2338 1 3434 3435
M  V30 2339 1 3439 3437
M  V30 2340 1 3438 3437
M  V30 2341 1 3442 3440
M  V30 2342 1 3440 3441
M  V30 2343 1 3445 3443
M  V30 2344 1 3443 3444
M  V30 2345 1 3447 3446
M  V30 2346 1 3446 3448
M  V30 2347 1 3450 3449
M  V30 2348 1 3451 3449
M  V30 2349 1 3454 3452
M  V30 2350 1 3452 3453
M  V30 2351 1 3456 3455
M  V30 2352 1 3457 3455
M  V30 2353 1 3459 3458
M  V30 2354 1 3460 3458
M  V30 2355 1 3462 3461
M  V30 2356 1 3461 3463
M  V30 2357 1 3466 3464
M  V30 2358 1 3465 3464
M  V30 2359 1 3468 3467
M  V30 2360 1 3467 3469
M  V30 2361 1 3471 3470
M  V30 2362 1 3472 3470
M  V30 2363 1 3474 3473
M  V30 2364 1 3475 3473
M  V30 2365 1 3478 3476
M  V30 2366 1 3476 3477
M  V30 2367 1 3479 3480
M  V30 2368 1 3479 3481
M  V30 2369 1 3484 3482
M  V30 2370 1 3482 3483
M  V30 2371 1 3487 3485
M  V30 2372 1 3486 3485
M  V30 2373 1 3489 3488
M  V30 2374 1 3490 3488
M  V30 2375 1 3492 3491
M  V30 2376 1 3493 3491
M  V30 2377 1 3494 3496
M  V30 2378 1 3494 3495
M  V30 2379 1 3499 3497
M  V30 2380 1 3497 3498
M  V30 2381 1 3501 3500
M  V30 2382 1 3500 3502
M  V30 2383 1 3504 3503
M  V30 2384 1 3505 3503
M  V30 2385 1 3507 3506
M  V30 2386 1 3506 3508
M  V30 2387 1 3511 3509
M  V30 2388 1 3509 3510
M  V30 2389 1 3513 3512
M  V30 2390 1 3512 3514
M  V30 2391 1 3517 3515
M  V30 2392 1 3515 3516
M  V30 2393 1 3520 3518
M  V30 2394 1 3518 3519
M  V30 2395 1 3523 3521
M  V30 2396 1 3522 3521
M  V30 2397 1 3526 3524
M  V30 2398 1 3525 3524
M  V30 2399 1 3529 3527
M  V30 2400 1 3527 3528
M  V30 2401 1 3531 3530
M  V30 2402 1 3530 3532
M  V30 2403 1 3534 3533
M  V30 2404 1 3533 3535
M  V30 2405 1 3538 3536
M  V30 2406 1 3537 3536
M  V30 2407 1 3541 3539
M  V30 2408 1 3539 3540
M  V30 2409 1 3544 3542
M  V30 2410 1 3542 3543
M  V30 2411 1 3546 3545
M  V30 2412 1 3545 3547
M  V30 2413 1 3548 3549
M  V30 2414 1 3548 3550
M  V30 2415 1 3553 3551
M  V30 2416 1 3551 3552
M  V30 2417 1 3555 3554
M  V30 2418 1 3554 3556
M  V30 2419 1 3557 3559
M  V30 2420 1 3557 3558
M  V30 2421 1 3562 3560
M  V30 2422 1 3560 3561
M  V30 2423 1 3564 3563
M  V30 2424 1 3563 3565
M  V30 2425 1 3568 3566
M  V30 2426 1 3566 3567
M  V30 2427 1 3571 3569
M  V30 2428 1 3569 3570
M  V30 2429 1 3573 3572
M  V30 2430 1 3572 3574
M  V30 2431 1 3577 3575
M  V30 2432 1 3575 3576
M  V30 2433 1 3579 3578
M  V30 2434 1 3578 3580
M  V30 2435 1 3582 3581
M  V30 2436 1 3583 3581
M  V30 2437 1 3585 3584
M  V30 2438 1 3586 3584
M  V30 2439 1 3588 3587
M  V30 2440 1 3589 3587
M  V30 2441 1 3592 3590
M  V30 2442 1 3590 3591
M  V30 2443 1 3595 3593
M  V30 2444 1 3593 3594
M  V30 2445 1 3596 3598
M  V30 2446 1 3596 3597
M  V30 2447 1 3601 3599
M  V30 2448 1 3600 3599
M  V30 2449 1 3604 3602
M  V30 2450 1 3602 3603
M  V30 2451 1 3606 3605
M  V30 2452 1 3607 3605
M  V30 2453 1 3610 3608
M  V30 2454 1 3608 3609
M  V30 2455 1 3612 3611
M  V30 2456 1 3613 3611
M  V30 2457 1 3615 3614
M  V30 2458 1 3614 3616
M  V30 2459 1 3618 3617
M  V30 2460 1 3617 3619
M  V30 2461 1 3621 3620
M  V30 2462 1 3622 3620
M  V30 2463 1 3624 3623
M  V30 2464 1 3623 3625
M  V30 2465 1 3627 3626
M  V30 2466 1 3626 3628
M  V30 2467 1 3629 3631
M  V30 2468 1 3629 3630
M  V30 2469 1 3633 3632
M  V30 2470 1 3634 3632
M  V30 2471 1 3636 3635
M  V30 2472 1 3635 3637
M  V30 2473 1 3638 3639
M  V30 2474 1 3638 3640
M  V30 2475 1 3642 3641
M  V30 2476 1 3643 3641
M  V30 2477 1 3646 3644
M  V30 2478 1 3644 3645
M  V30 2479 1 3649 3647
M  V30 2480 1 3648 3647
M  V30 2481 1 3652 3650
M  V30 2482 1 3650 3651
M  V30 2483 1 3653 3654
M  V30 2484 1 3653 3655
M  V30 2485 1 3656 3657
M  V30 2486 1 3656 3658
M  V30 2487 1 3659 3661
M  V30 2488 1 3659 3660
M  V30 2489 1 3662 3663
M  V30 2490 1 3662 3664
M  V30 2491 1 3667 3665
M  V30 2492 1 3665 3666
M  V30 2493 1 3668 3669
M  V30 2494 1 3668 3670
M  V30 2495 1 3671 3673
M  V30 2496 1 3671 3672
M  V30 2497 1 3675 3674
M  V30 2498 1 3676 3674
M  V30 2499 1 3677 3678
M  V30 2500 1 3677 3679
M  V30 2501 1 3682 3680
M  V30 2502 1 3680 3681
M  V30 2503 1 3684 3683
M  V30 2504 1 3685 3683
M  V30 2505 1 3688 3686
M  V30 2506 1 3686 3687
M  V30 2507 1 3691 3689
M  V30 2508 1 3689 3690
M  V30 2509 1 3693 3692
M  V30 2510 1 3692 3694
M  V30 2511 1 3697 3695
M  V30 2512 1 3696 3695
M  V30 2513 1 3698 3700
M  V30 2514 1 3698 3699
M  V30 2515 1 3701 3703
M  V30 2516 1 3701 3702
M  V30 2517 1 3706 3704
M  V30 2518 1 3704 3705
M  V30 2519 1 3708 3707
M  V30 2520 1 3707 3709
M  V30 2521 1 3712 3710
M  V30 2522 1 3710 3711
M  V30 2523 1 3713 3714
M  V30 2524 1 3713 3715
M  V30 2525 1 3718 3716
M  V30 2526 1 3716 3717
M  V30 2527 1 3721 3719
M  V30 2528 1 3719 3720
M  V30 2529 1 3723 3722
M  V30 2530 1 3724 3722
M  V30 2531 1 3727 3725
M  V30 2532 1 3725 3726
M  V30 2533 1 3730 3728
M  V30 2534 1 3729 3728
M  V30 2535 1 3732 3731
M  V30 2536 1 3733 3731
M  V30 2537 1 3734 3735
M  V30 2538 1 3734 3736
M  V30 2539 1 3738 3737
M  V30 2540 1 3739 3737
M  V30 2541 1 3742 3740
M  V30 2542 1 3740 3741
M  V30 END BOND
M  V30 END CTAB
M  END