muliframe_PDB_alphaCD_0001
 OpenBabel08172623063D

  0  0  0     0  0            999 V3000
M  V30 BEGIN CTAB
M  V30 COUNTS 3742 2542 0 0 1
M  V30 BEGIN ATOM
M  V30 1 Mo -8.314 -7.181 -8.243 0
M  V30 2 S -6.374 -6.145 -8.986 0
M  V30 3 S -8.262 -7.354 -5.964 0
M  V30 4 S -10.103 -5.725 -8.601 0
M  V30 5 S -8.46 -9.342 -9.116 0
M  V30 6 C -5.168 3.845 8.288 0
M  V30 7 C -3.928 3.033 8.658 0
M  V30 8 C -3.799 1.723 7.84 0
M  V30 9 C -5.098 0.853 7.981 0
M  V30 10 C -6.282 1.735 7.677 0
M  V30 11 C -7.669 1.099 7.762 0
M  V30 12 C -4.327 -1.457 7.783 0
M  V30 13 C -3.806 -2.215 6.513 0
M  V30 14 C -3.88 -3.734 6.782 0
M  V30 15 C -5.393 -4.156 6.775 0
M  V30 16 C -6.117 -3.127 7.785 0
M  V30 17 C -6.96 -3.876 8.872 0
M  V30 18 O -6.329 3.008 8.382 0
M  V30 19 O -3.971 2.889 10.087 0
M  V30 20 O -3.406 1.969 6.5 0
M  V30 21 O -8.784 1.809 7.267 0
M  V30 22 O -4.975 -0.392 7.26 0
M  V30 23 O -5.263 -2.248 8.542 0
M  V30 24 O -2.528 -1.693 6.335 0
M  V30 25 O -3.003 -4.533 5.876 0
M  V30 26 O -5.016 4.379 6.972 0
M  V30 27 O -7.966 -3.048 9.524 0
M  V30 28 C -5.559 5.621 6.701 0
M  V30 29 C -4.83 6.358 5.625 0
M  V30 30 C -5.007 5.683 4.35 0
M  V30 31 C -6.551 5.664 3.979 0
M  V30 32 O -6.839 4.404 3.492 0
M  V30 33 C -8 4.197 2.702 0
M  V30 34 C -7.797 4.569 1.286 0
M  V30 35 C -9.164 4.414 0.496 0
M  V30 36 C -9.945 3.106 0.785 0
M  V30 37 O -9.969 2.836 2.128 0
M  V30 38 C -8.661 2.848 2.906 0
M  V30 39 C -9.059 2.635 4.351 0
M  V30 40 O -9.712 1.355 4.529 0
M  V30 41 O -9.323 2.006 0.182 0
M  V30 42 C -9.997 0.732 0.096 0
M  V30 43 C -9.237 -0.139 -0.973 0
M  V30 44 C -8.069 -0.917 -0.3 0
M  V30 45 C -8.707 -1.861 0.744 0
M  V30 46 O -7.826 -1.936 1.861 0
M  V30 47 C -8.1 -3.067 2.757 0
M  V30 48 C -6.852 -4.007 2.575 0
M  V30 49 C -6.891 -5.109 3.606 0
M  V30 50 C -7.068 -4.639 5.04 0
M  V30 51 O -8.217 -3.854 5.136 0
M  V30 52 C -8.134 -2.684 4.266 0
M  V30 53 C -9.406 -1.897 4.457 0
M  V30 54 O -9.571 -1.449 5.814 0
M  V30 55 O -5.891 -4.052 5.378 0
M  V30 56 O -7.936 -6.054 3.291 0
M  V30 57 O -5.645 -3.336 2.72 0
M  V30 58 O -9.939 -1.52 1.261 0
M  V30 59 C -10.204 -0.089 1.404 0
M  V30 60 C -11.628 0.119 2.047 0
M  V30 61 O -12.639 -0.399 1.175 0
M  V30 62 O -7.252 -1.647 -1.227 0
M  V30 63 O -8.871 0.572 -2.161 0
M  V30 64 O -10.064 5.513 0.819 0
M  V30 65 O -6.82 3.755 0.596 0
M  V30 66 O -7.45 5.936 5.032 0
M  V30 67 C -7.066 5.379 6.29 0
M  V30 68 C -7.976 5.818 7.47 0
M  V30 69 O -9.344 5.579 7.084 0
M  V30 70 O -4.274 6.25 3.328 0
M  V30 71 O -3.453 6.651 5.897 0
M  V30 72 H -5.425 4.495 9.125 0
M  V30 73 H -3.116 3.725 8.438 0
M  V30 74 H -2.948 1.194 8.269 0
M  V30 75 H -5.172 0.589 9.036 0
M  V30 76 H -6.141 1.95 6.618 0
M  V30 77 H -7.945 0.801 8.773 0
M  V30 78 H -7.508 0.133 7.283 0
M  V30 79 H -3.547 -1.225 8.507 0
M  V30 80 H -4.401 -2.154 5.602 0
M  V30 81 H -3.553 -3.836 7.817 0
M  V30 82 H -5.526 -5.19 7.095 0
M  V30 83 H -6.809 -2.452 7.281 0
M  V30 84 H -6.335 -4.323 9.646 0
M  V30 85 H -7.53 -4.686 8.417 0
M  V30 86 H -3.132 2.511 10.361 0
M  V30 87 H -3.981 2.615 6.083 0
M  V30 88 H -9.416 2.045 7.95 0
M  V30 89 H -2.283 -2.08 5.492 0
M  V30 90 H -2.829 -5.376 6.301 0
M  V30 91 H -8.2 -3.595 10.277 0
M  V30 92 H -5.502 6.215 7.613 0
M  V30 93 H -5.249 7.363 5.573 0
M  V30 94 H -4.69 4.64 4.352 0
M  V30 95 H -6.783 6.456 3.266 0
M  V30 96 H -8.721 4.887 3.138 0
M  V30 97 H -7.496 5.596 1.075 0
M  V30 98 H -8.958 4.347 -0.572 0
M  V30 99 H -10.996 3.137 0.498 0
M  V30 100 H -7.95 2.082 2.595 0
M  V30 101 H -9.67 3.476 4.68 0
M  V30 102 H -8.102 2.744 4.862 0
M  V30 103 H -9.382 0.991 5.353 0
M  V30 104 H -10.886 1.087 -0.426 0
M  V30 105 H -9.891 -0.962 -1.262 0
M  V30 106 H -7.431 -0.23 0.256 0
M  V30 107 H -8.829 -2.877 0.37 0
M  V30 108 H -8.997 -3.621 2.479 0
M  V30 109 H -6.732 -4.364 1.552 0
M  V30 110 H -5.946 -5.625 3.438 0
M  V30 111 H -7.285 -5.445 5.741 0
M  V30 112 H -7.227 -2.112 4.465 0
M  V30 113 H -10.329 -2.37 4.121 0
M  V30 114 H -9.307 -1.082 3.74 0
M  V30 115 H -10.432 -1.024 5.829 0
M  V30 116 H -7.51 -6.726 2.754 0
M  V30 117 H -5.018 -3.896 3.185 0
M  V30 118 H -9.478 0.33 2.101 0
M  V30 119 H -11.861 1.159 2.276 0
M  V30 120 H -11.746 -0.306 3.043 0
M  V30 121 H -12.738 -1.323 1.414 0
M  V30 122 H -7.44 -1.274 -2.092 0
M  V30 123 H -8.274 1.303 -1.983 0
M  V30 124 H -9.631 6.068 1.471 0
M  V30 125 H -6.013 3.612 1.096 0
M  V30 126 H -7.279 4.321 6.137 0
M  V30 127 H -7.861 6.878 7.695 0
M  V30 128 H -7.671 5.276 8.365 0
M  V30 129 H -9.446 6.055 6.256 0
M  V30 130 H -3.567 5.633 3.123 0
M  V30 131 H -3.431 7.322 6.583 0
M  V30 132 Na -12.148 -8.908 -11.273 0
M  V30 133 Na 2.678 3.275 14.392 0
M  V30 134 O -8.003 -2.025 -10.652 0
M  V30 135 H -7.229 -2.49 -10.97 0
M  V30 136 H -7.692 -1.139 -10.466 0
M  V30 137 O -5.657 -16.227 -7.615 0
M  V30 138 H -6.527 -15.83 -7.58 0
M  V30 139 H -5.262 -16.018 -6.769 0
M  V30 140 O 11.137 -8.068 1.863 0
M  V30 141 H 11.173 -7.164 2.177 0
M  V30 142 H 10.943 -7.989 0.929 0
M  V30 143 O 7.775 -2.129 -14.397 0
M  V30 144 H 7.653 -2.557 -15.244 0
M  V30 145 H 7.017 -2.4 -13.879 0
M  V30 146 O -14.913 1.874 -12.933 0
M  V30 147 H -14.203 2 -12.304 0
M  V30 148 H -14.499 1.981 -13.789 0
M  V30 149 O 0.383 -12.66 -8.873 0
M  V30 150 H 0.935 -12.36 -8.152 0
M  V30 151 H -0.511 -12.587 -8.538 0
M  V30 152 O -3.032 -4.258 -12.918 0
M  V30 153 H -2.541 -3.645 -12.371 0
M  V30 154 H -3.95 -4.037 -12.761 0
M  V30 155 O -16.269 -14.195 2.779 0
M  V30 156 H -15.457 -13.741 2.556 0
M  V30 157 H -16.109 -15.107 2.534 0
M  V30 158 O 2.058 -3.685 4.989 0
M  V30 159 H 2.451 -2.822 4.858 0
M  V30 160 H 2.085 -4.094 4.124 0
M  V30 161 O 2.767 3.848 -10.597 0
M  V30 162 H 3.352 3.132 -10.347 0
M  V30 163 H 3.168 4.629 -10.215 0
M  V30 164 O 11.205 -15.698 -9.554 0
M  V30 165 H 11.775 -15.152 -10.095 0
M  V30 166 H 11.78 -16.384 -9.214 0
M  V30 167 O -0.098 0.492 8.542 0
M  V30 168 H 0.12 1.297 8.073 0
M  V30 169 H -0.529 0.791 9.343 0
M  V30 170 O -9.253 13.774 -0.12 0
M  V30 171 H -8.801 12.963 -0.355 0
M  V30 172 H -10.136 13.495 0.122 0
M  V30 173 O 9.317 -14.989 -7.557 0
M  V30 174 H 9.829 -15.379 -8.265 0
M  V30 175 H 9.865 -14.277 -7.228 0
M  V30 176 O -1.911 8.12 0.814 0
M  V30 177 H -1.342 7.98 0.057 0
M  V30 178 H -2.794 7.953 0.485 0
M  V30 179 O 9.764 -10.592 -7.676 0
M  V30 180 H 10.257 -9.989 -8.232 0
M  V30 181 H 10.085 -10.42 -6.791 0
M  V30 182 O 8.151 16.021 -9.33 0
M  V30 183 H 8.143 15.084 -9.135 0
M  V30 184 H 8.827 16.12 -10.001 0
M  V30 185 O 15.044 0.477 8.139 0
M  V30 186 H 15.752 0.447 7.496 0
M  V30 187 H 15.489 0.472 8.986 0
M  V30 188 O -11.353 6.779 12.631 0
M  V30 189 H -12.238 7.099 12.46 0
M  V30 190 H -11.419 6.324 13.47 0
M  V30 191 O 8.972 -1.113 3.908 0
M  V30 192 H 8.857 -2.04 4.114 0
M  V30 193 H 9.297 -0.725 4.72 0
M  V30 194 O 16.811 -7.318 8.116 0
M  V30 195 H 16.883 -8.265 8.237 0
M  V30 196 H 16.436 -6.999 8.936 0
M  V30 197 O 13.876 6.532 -1.393 0
M  V30 198 H 14.787 6.242 -1.426 0
M  V30 199 H 13.39 5.85 -1.858 0
M  V30 200 O -7.616 14.175 -11.998 0
M  V30 201 H -6.713 14.178 -12.315 0
M  V30 202 H -7.907 15.082 -12.091 0
M  V30 203 O 15.218 13.537 -7.98 0
M  V30 204 H 15.117 12.842 -7.329 0
M  V30 205 H 16.122 13.833 -7.877 0
M  V30 206 O 7.008 -3.462 16.079 0
M  V30 207 H 7.742 -3.633 15.489 0
M  V30 208 H 6.499 -4.272 16.07 0
M  V30 209 O -5.407 -16.698 -2.51 0
M  V30 210 H -6.176 -17.154 -2.853 0
M  V30 211 H -5.704 -15.799 -2.369 0
M  V30 212 O 1.867 5.643 3.974 0
M  V30 213 H 1.213 5.256 3.393 0
M  V30 214 H 1.54 6.526 4.149 0
M  V30 215 O -8.06 15.24 -3.121 0
M  V30 216 H -8.488 15.873 -3.698 0
M  V30 217 H -7.259 14.996 -3.585 0
M  V30 218 O 0.334 14.344 6.469 0
M  V30 219 H 0.231 13.788 7.241 0
M  V30 220 H -0.558 14.474 6.146 0
M  V30 221 O 15.766 11.952 5.02 0
M  V30 222 H 15.25 12.262 4.276 0
M  V30 223 H 15.914 11.024 4.838 0
M  V30 224 O -11.381 9.992 11.375 0
M  V30 225 H -12.21 9.604 11.654 0
M  V30 226 H -11.114 10.544 12.11 0
M  V30 227 O -7.892 -10.659 10.979 0
M  V30 228 H -7.903 -11.521 10.564 0
M  V30 229 H -8.053 -10.045 10.262 0
M  V30 230 O -10.957 -3.031 16.835 0
M  V30 231 H -10.029 -2.806 16.763 0
M  V30 232 H -11.287 -2.975 15.938 0
M  V30 233 O 11.968 -16.234 -12.974 0
M  V30 234 H 11.568 -16.923 -12.443 0
M  V30 235 H 12.876 -16.515 -13.087 0
M  V30 236 O 16.199 15.158 4.403 0
M  V30 237 H 16.893 14.857 4.989 0
M  V30 238 H 15.81 14.353 4.059 0
M  V30 239 O -16.928 5.108 6.552 0
M  V30 240 H -17.492 4.345 6.426 0
M  V30 241 H -16.556 5.277 5.687 0
M  V30 242 O -10.741 -12.911 -13.94 0
M  V30 243 H -10.276 -13.353 -14.65 0
M  V30 244 H -10.909 -12.03 -14.274 0
M  V30 245 O 14.358 -0.239 4.525 0
M  V30 246 H 14.918 -0.195 3.749 0
M  V30 247 H 14.696 -0.984 5.022 0
M  V30 248 O 6.378 -11.839 7.727 0
M  V30 249 H 6.744 -11.938 6.848 0
M  V30 250 H 7.101 -11.49 8.249 0
M  V30 251 O 11.411 -1.536 -15.71 0
M  V30 252 H 11.084 -0.782 -15.218 0
M  V30 253 H 11.358 -1.266 -16.627 0
M  V30 254 O 12.091 -5.559 2.483 0
M  V30 255 H 11.54 -4.922 2.937 0
M  V30 256 H 12.924 -5.535 2.952 0
M  V30 257 O -8.249 -2.924 -3.714 0
M  V30 258 H -8.606 -3.315 -2.916 0
M  V30 259 H -8.81 -2.168 -3.883 0
M  V30 260 O 12.915 15.236 -3.209 0
M  V30 261 H 12.493 14.625 -3.814 0
M  V30 262 H 13.044 14.73 -2.407 0
M  V30 263 O 15.299 3.152 6.344 0
M  V30 264 H 14.64 2.796 6.94 0
M  V30 265 H 15.877 2.412 6.155 0
M  V30 266 O -8.11 -13.024 4.648 0
M  V30 267 H -8.608 -12.855 3.848 0
M  V30 268 H -7.683 -13.866 4.492 0
M  V30 269 O -9.813 7.893 -13.218 0
M  V30 270 H -9.555 8.804 -13.076 0
M  V30 271 H -10.008 7.56 -12.343 0
M  V30 272 O 4.854 -16.844 12.318 0
M  V30 273 H 4.771 -15.9 12.185 0
M  V30 274 H 4.049 -17.21 11.95 0
M  V30 275 O -12.923 15.834 -13.565 0
M  V30 276 H -13.568 15.269 -13.139 0
M  V30 277 H -13.183 15.842 -14.487 0
M  V30 278 O -0.841 10.79 -1.618 0
M  V30 279 H -1.028 11.505 -2.226 0
M  V30 280 H -0.885 11.193 -0.751 0
M  V30 281 O -10.452 14.693 10.24 0
M  V30 282 H -11.077 14.443 9.559 0
M  V30 283 H -10.186 15.582 10.006 0
M  V30 284 O -13.036 1.395 -1.886 0
M  V30 285 H -13.486 2.123 -1.458 0
M  V30 286 H -13.088 1.597 -2.821 0
M  V30 287 O 4.391 -8.289 -11.916 0
M  V30 288 H 3.906 -7.468 -11.996 0
M  V30 289 H 3.857 -8.828 -11.333 0
M  V30 290 O -16.741 -8.375 -10.236 0
M  V30 291 H -16.128 -8.329 -9.503 0
M  V30 292 H -16.676 -9.277 -10.548 0
M  V30 293 O -6.509 7.925 -12.996 0
M  V30 294 H -6.456 6.978 -12.866 0
M  V30 295 H -6.741 8.028 -13.919 0
M  V30 296 O 2.48 -4.778 2.582 0
M  V30 297 H 2.104 -5.067 1.75 0
M  V30 298 H 3.247 -5.338 2.706 0
M  V30 299 O -4.836 14.567 7.273 0
M  V30 300 H -5.028 13.648 7.083 0
M  V30 301 H -5.006 15.023 6.449 0
M  V30 302 O -15.319 -3.234 13.681 0
M  V30 303 H -15.16 -4.045 14.164 0
M  V30 304 H -16.264 -3.096 13.748 0
M  V30 305 O 2.572 -1.042 4.455 0
M  V30 306 H 1.848 -0.504 4.134 0
M  V30 307 H 3.356 -0.525 4.27 0
M  V30 308 O -7.538 12.114 -8.235 0
M  V30 309 H -8.147 11.781 -7.576 0
M  V30 310 H -8.09 12.321 -8.99 0
M  V30 311 O -9.156 -16.614 11.571 0
M  V30 312 H -9.507 -16.451 12.446 0
M  V30 313 H -9.92 -16.583 10.995 0
M  V30 314 O -5.801 -13.462 0.507 0
M  V30 315 H -6.657 -13.446 0.935 0
M  V30 316 H -5.281 -12.816 0.984 0
M  V30 317 O 10.533 -15.556 6.734 0
M  V30 318 H 10.856 -14.738 7.111 0
M  V30 319 H 11.242 -16.183 6.88 0
M  V30 320 O -4.901 16.183 13.617 0
M  V30 321 H -4.583 15.767 14.417 0
M  V30 322 H -4.365 15.805 12.92 0
M  V30 323 O 1.77 12.984 -13.902 0
M  V30 324 H 2.145 13.243 -13.06 0
M  V30 325 H 1.655 13.807 -14.377 0
M  V30 326 O 7.599 13.785 2.602 0
M  V30 327 H 7.313 14.546 3.107 0
M  V30 328 H 7.291 13.032 3.107 0
M  V30 329 O -10.805 0.243 10.253 0
M  V30 330 H -10.279 1.042 10.27 0
M  V30 331 H -10.431 -0.275 9.54 0
M  V30 332 O 11.76 -4.235 5.047 0
M  V30 333 H 11.665 -3.283 5.031 0
M  V30 334 H 12.611 -4.385 5.459 0
M  V30 335 O 4.657 1.991 -9.785 0
M  V30 336 H 4.286 1.319 -9.214 0
M  V30 337 H 5.532 2.15 -9.432 0
M  V30 338 O 1.566 -10.354 1.551 0
M  V30 339 H 0.998 -10.424 0.783 0
M  V30 340 H 2.451 -10.472 1.207 0
M  V30 341 O -16.316 14.758 6.616 0
M  V30 342 H -16.31 14.695 7.571 0
M  V30 343 H -15.61 14.177 6.333 0
M  V30 344 O -9.351 -5.29 -1.973 0
M  V30 345 H -9.507 -6.19 -1.687 0
M  V30 346 H -10.069 -4.787 -1.588 0
M  V30 347 O -0.226 -5.946 -8.756 0
M  V30 348 H -1.013 -5.457 -8.998 0
M  V30 349 H -0.512 -6.859 -8.724 0
M  V30 350 O 13.892 -5.089 -13.221 0
M  V30 351 H 13.405 -4.609 -13.891 0
M  V30 352 H 13.286 -5.151 -12.483 0
M  V30 353 O 15.884 5.742 9.177 0
M  V30 354 H 14.945 5.927 9.17 0
M  V30 355 H 16.074 5.429 8.293 0
M  V30 356 O -5.196 10.304 -8.967 0
M  V30 357 H -5.725 11.039 -8.656 0
M  V30 358 H -4.707 10.017 -8.197 0
M  V30 359 O -12.112 -12.117 9.237 0
M  V30 360 H -11.73 -12.556 8.477 0
M  V30 361 H -11.488 -12.275 9.945 0
M  V30 362 O 16.169 -6.897 10.998 0
M  V30 363 H 16.606 -6.472 11.737 0
M  V30 364 H 15.318 -7.164 11.344 0
M  V30 365 O -2.64 10.963 -4.591 0
M  V30 366 H -1.798 10.745 -4.192 0
M  V30 367 H -2.45 11.711 -5.157 0
M  V30 368 O 12.771 -5.442 -10.766 0
M  V30 369 H 13.278 -4.925 -10.14 0
M  V30 370 H 13.231 -6.28 -10.813 0
M  V30 371 O -16.802 1.32 -15.994 0
M  V30 372 H -16.331 0.632 -16.466 0
M  V30 373 H -16.992 0.937 -15.138 0
M  V30 374 O -9.863 -6.967 7.479 0
M  V30 375 H -10.675 -6.787 7.953 0
M  V30 376 H -10.044 -6.695 6.58 0
M  V30 377 O 6.092 16.405 8.645 0
M  V30 378 H 5.32 16.971 8.651 0
M  V30 379 H 6.177 16.126 7.733 0
M  V30 380 O -3.357 14.444 -1.052 0
M  V30 381 H -3.236 15.193 -1.637 0
M  V30 382 H -3.541 14.834 -0.198 0
M  V30 383 O 3.297 -1.87 1.71 0
M  V30 384 H 3.111 -1.503 2.575 0
M  V30 385 H 2.805 -2.69 1.686 0
M  V30 386 O 7.099 0.336 -1.364 0
M  V30 387 H 8.044 0.455 -1.269 0
M  V30 388 H 6.934 0.458 -2.299 0
M  V30 389 O -11.649 5.366 14.912 0
M  V30 390 H -11.395 4.51 14.567 0
M  V30 391 H -12.606 5.348 14.918 0
M  V30 392 O 3.22 -0.259 -0.822 0
M  V30 393 H 3.933 -0.892 -0.732 0
M  V30 394 H 2.799 -0.247 0.038 0
M  V30 395 O 13.541 -1.321 -13.371 0
M  V30 396 H 12.869 -1.804 -13.852 0
M  V30 397 H 13.095 -1.006 -12.585 0
M  V30 398 O 11.014 -11.38 -1.092 0
M  V30 399 H 10.358 -11.19 -1.763 0
M  V30 400 H 11.835 -11.052 -1.46 0
M  V30 401 O -6.76 0.357 -4.139 0
M  V30 402 H -6.785 0.941 -3.381 0
M  V30 403 H -5.865 0.019 -4.153 0
M  V30 404 O 15.627 -2.069 1.769 0
M  V30 405 H 15.994 -1.539 1.061 0
M  V30 406 H 16.381 -2.53 2.138 0
M  V30 407 O 13.51 17.205 13.946 0
M  V30 408 H 13.211 16.516 14.54 0
M  V30 409 H 12.932 17.135 13.187 0
M  V30 410 O -16.908 6.402 -12.487 0
M  V30 411 H -16.357 5.82 -13.011 0
M  V30 412 H -16.313 7.089 -12.187 0
M  V30 413 O 14.231 1.083 -10.937 0
M  V30 414 H 14.469 1.946 -11.274 0
M  V30 415 H 15.015 0.55 -11.066 0
M  V30 416 O -13.805 -0.208 -9.714 0
M  V30 417 H -13.305 0.606 -9.649 0
M  V30 418 H -13.199 -0.886 -9.417 0
M  V30 419 O 6.854 -0.215 1.777 0
M  V30 420 H 7.142 0.031 2.656 0
M  V30 421 H 7.66 -0.458 1.32 0
M  V30 422 O -8.622 12.157 -16.238 0
M  V30 423 H -9.209 12.859 -15.959 0
M  V30 424 H -7.771 12.583 -16.343 0
M  V30 425 O -9.123 -4.659 -13.796 0
M  V30 426 H -8.724 -3.826 -14.048 0
M  V30 427 H -9.364 -4.542 -12.877 0
M  V30 428 O -0.739 5.631 7.966 0
M  V30 429 H -0.753 6.065 8.818 0
M  V30 430 H -0.805 6.344 7.331 0
M  V30 431 O 8.503 -14.699 5.239 0
M  V30 432 H 7.718 -14.799 5.777 0
M  V30 433 H 9.201 -15.104 5.755 0
M  V30 434 O 10.366 -16.467 3.146 0
M  V30 435 H 9.975 -16.89 3.91 0
M  V30 436 H 11.277 -16.76 3.149 0
M  V30 437 O 11.926 8.749 -1.388 0
M  V30 438 H 12.723 8.231 -1.278 0
M  V30 439 H 11.498 8.371 -2.157 0
M  V30 440 O -14.981 1.051 0.683 0
M  V30 441 H -14.134 0.623 0.808 0
M  V30 442 H -14.857 1.608 -0.086 0
M  V30 443 O -1.392 -0.43 -7.35 0
M  V30 444 H -1.411 -1.111 -8.022 0
M  V30 445 H -0.584 0.054 -7.522 0
M  V30 446 O 1.476 9.465 -3.707 0
M  V30 447 H 0.891 10.211 -3.579 0
M  V30 448 H 0.949 8.703 -3.467 0
M  V30 449 O 9.96 11.685 -3.358 0
M  V30 450 H 9.466 10.865 -3.36 0
M  V30 451 H 9.291 12.368 -3.384 0
M  V30 452 O -11.53 4.969 3.517 0
M  V30 453 H -11.587 4.085 3.88 0
M  V30 454 H -11.458 4.837 2.572 0
M  V30 455 O -1.713 0.621 4.886 0
M  V30 456 H -1.673 -0.114 5.497 0
M  V30 457 H -2.244 1.278 5.337 0
M  V30 458 O -9.649 -10.229 6.154 0
M  V30 459 H -10.432 -10.682 5.84 0
M  V30 460 H -9.982 -9.573 6.767 0
M  V30 461 O 10.01 13.566 -12.066 0
M  V30 462 H 10.821 13.985 -12.353 0
M  V30 463 H 9.631 13.204 -12.867 0
M  V30 464 O -14.229 15.055 3.193 0
M  V30 465 H -14.574 15.906 2.922 0
M  V30 466 H -14.765 14.417 2.721 0
M  V30 467 O -4.911 -7.822 0.563 0
M  V30 468 H -4.932 -8.07 1.488 0
M  V30 469 H -5.807 -7.964 0.257 0
M  V30 470 O 5.615 -5.332 -13.717 0
M  V30 471 H 5.037 -5.37 -12.955 0
M  V30 472 H 5.031 -5.146 -14.453 0
M  V30 473 O -4.464 -1.003 -4.746 0
M  V30 474 H -3.648 -0.999 -5.247 0
M  V30 475 H -4.709 -1.927 -4.693 0
M  V30 476 O 4.527 11.988 -9.178 0
M  V30 477 H 4.642 11.145 -8.739 0
M  V30 478 H 5.419 12.294 -9.346 0
M  V30 479 O -3.616 -3.478 -7.332 0
M  V30 480 H -4.51 -3.435 -7.67 0
M  V30 481 H -3.68 -4.027 -6.551 0
M  V30 482 O -11.752 8.406 7.408 0
M  V30 483 H -11.706 7.637 6.841 0
M  V30 484 H -10.992 8.326 7.984 0
M  V30 485 O 3.301 7.646 -7.857 0
M  V30 486 H 3.986 7.565 -7.193 0
M  V30 487 H 2.668 8.254 -7.476 0
M  V30 488 O -2.413 -6.651 -14.11 0
M  V30 489 H -2.639 -5.947 -13.501 0
M  V30 490 H -1.47 -6.559 -14.243 0
M  V30 491 O -9.296 11.496 2.449 0
M  V30 492 H -10.122 11.978 2.409 0
M  V30 493 H -8.969 11.506 1.549 0
M  V30 494 O -15.57 -5.765 5.273 0
M  V30 495 H -16.365 -6.267 5.454 0
M  V30 496 H -15.354 -5.349 6.108 0
M  V30 497 O 8.568 11.078 3.857 0
M  V30 498 H 8.457 11.119 2.907 0
M  V30 499 H 9.486 11.306 4.002 0
M  V30 500 O -6.264 -13.456 -5.396 0
M  V30 501 H -5.688 -12.691 -5.405 0
M  V30 502 H -5.67 -14.203 -5.322 0
M  V30 503 O -0.823 -2.27 8.378 0
M  V30 504 H -1.514 -2.289 7.715 0
M  V30 505 H -0.549 -1.353 8.412 0
M  V30 506 O 1.904 7.854 13.51 0
M  V30 507 H 2.661 8.433 13.599 0
M  V30 508 H 1.962 7.266 14.263 0
M  V30 509 O -5.136 -12.499 13.311 0
M  V30 510 H -5.704 -12.838 12.619 0
M  V30 511 H -4.676 -13.27 13.643 0
M  V30 512 O -12.175 5.221 -1.691 0
M  V30 513 H -11.837 4.441 -2.132 0
M  V30 514 H -11.393 5.713 -1.443 0
M  V30 515 O -12.173 -0.722 5.925 0
M  V30 516 H -12.839 -0.325 6.487 0
M  V30 517 H -12.653 -1.002 5.145 0
M  V30 518 O 6.667 -0.655 -8.38 0
M  V30 519 H 6.929 0.249 -8.556 0
M  V30 520 H 6.332 -0.637 -7.484 0
M  V30 521 O -1.742 0.093 -2.85 0
M  V30 522 H -2.544 0.264 -2.357 0
M  V30 523 H -1.915 -0.727 -3.313 0
M  V30 524 O 4.677 -9.924 10.258 0
M  V30 525 H 3.849 -10.161 10.676 0
M  V30 526 H 4.476 -9.903 9.322 0
M  V30 527 O -4.928 -3.194 -2.557 0
M  V30 528 H -5.738 -3.058 -2.065 0
M  V30 529 H -4.508 -2.334 -2.571 0
M  V30 530 O 9.952 -14.077 -1.862 0
M  V30 531 H 10.706 -14.366 -2.375 0
M  V30 532 H 10.331 -13.708 -1.065 0
M  V30 533 O 13.119 -13.291 -8.372 0
M  V30 534 H 13.411 -14.203 -8.37 0
M  V30 535 H 12.651 -13.192 -9.201 0
M  V30 536 O -5.81 14.621 -4.869 0
M  V30 537 H -4.967 14.962 -4.569 0
M  V30 538 H -5.714 13.67 -4.824 0
M  V30 539 O -7.438 9.906 3.585 0
M  V30 540 H -6.534 10.184 3.44 0
M  V30 541 H -7.969 10.638 3.27 0
M  V30 542 O -10.309 -0.945 -3.886 0
M  V30 543 H -9.9 -0.249 -3.373 0
M  V30 544 H -11.246 -0.853 -3.712 0
M  V30 545 O -15.329 -12.393 -3.382 0
M  V30 546 H -15.245 -13.298 -3.684 0
M  V30 547 H -15.418 -12.464 -2.432 0
M  V30 548 O -9.392 -15.735 0.649 0
M  V30 549 H -9.635 -15.498 -0.247 0
M  V30 550 H -8.942 -16.576 0.561 0
M  V30 551 O 16.335 8.465 9.068 0
M  V30 552 H 16.475 7.556 9.335 0
M  V30 553 H 15.705 8.806 9.703 0
M  V30 554 O 14.264 -14.675 -12.335 0
M  V30 555 H 13.369 -14.649 -12.675 0
M  V30 556 H 14.817 -14.705 -13.116 0
M  V30 557 O 15.969 8.348 1.472 0
M  V30 558 H 15.067 8.484 1.763 0
M  V30 559 H 16.092 7.399 1.506 0
M  V30 560 O -9.346 -4.386 -11.144 0
M  V30 561 H -8.882 -3.59 -10.884 0
M  V30 562 H -9.503 -4.851 -10.323 0
M  V30 563 O -3.572 -10.096 -9.674 0
M  V30 564 H -4.417 -10.147 -10.121 0
M  V30 565 H -2.958 -9.815 -10.353 0
M  V30 566 O -3.824 11.08 13.306 0
M  V30 567 H -4.673 11.33 13.669 0
M  V30 568 H -3.248 11.816 13.513 0
M  V30 569 O 16.349 8.418 12.798 0
M  V30 570 H 17.182 8.889 12.838 0
M  V30 571 H 16.186 8.142 13.7 0
M  V30 572 O -14.059 0.359 9.981 0
M  V30 573 H -14.499 1.2 10.098 0
M  V30 574 H -13.178 0.499 10.328 0
M  V30 575 O -0.229 9.081 -11.712 0
M  V30 576 H 0.605 8.946 -11.263 0
M  V30 577 H -0.021 9.679 -12.43 0
M  V30 578 O -15.498 -10.599 -13.883 0
M  V30 579 H -15.418 -11.508 -14.17 0
M  V30 580 H -16.101 -10.633 -13.14 0
M  V30 581 O -10.927 3.107 -7.149 0
M  V30 582 H -11.096 3.977 -7.509 0
M  V30 583 H -10.028 2.909 -7.412 0
M  V30 584 O 1.65 -12.161 15.645 0
M  V30 585 H 1.008 -11.616 16.099 0
M  V30 586 H 2.262 -12.432 16.329 0
M  V30 587 O -14.206 9.23 12.307 0
M  V30 588 H -14.342 8.289 12.413 0
M  V30 589 H -13.905 9.528 13.166 0
M  V30 590 O -9.652 -1.806 -8.437 0
M  V30 591 H -9.27 -2.043 -9.282 0
M  V30 592 H -9.169 -2.332 -7.799 0
M  V30 593 O -8.241 -12.297 -1.385 0
M  V30 594 H -8.466 -13.219 -1.51 0
M  V30 595 H -8.791 -11.829 -2.013 0
M  V30 596 O 17.117 -2.08 16.295 0
M  V30 597 H 17.079 -1.979 17.246 0
M  V30 598 H 16.204 -2.188 16.029 0
M  V30 599 O 5.965 -17.154 -7.512 0
M  V30 600 H 6.648 -17.473 -8.102 0
M  V30 601 H 5.924 -16.213 -7.68 0
M  V30 602 O -3.722 7.532 -7.841 0
M  V30 603 H -4.394 6.869 -7.679 0
M  V30 604 H -3.217 7.187 -8.577 0
M  V30 605 O -8.585 -15.16 -7.28 0
M  V30 606 H -8.59 -14.388 -6.714 0
M  V30 607 H -9.509 -15.33 -7.462 0
M  V30 608 O 12.179 -1.779 14.433 0
M  V30 609 H 11.246 -1.919 14.27 0
M  V30 610 H 12.615 -2.152 13.668 0
M  V30 611 O 12.356 3.288 0.227 0
M  V30 612 H 11.479 3.219 -0.152 0
M  V30 613 H 12.839 2.553 -0.151 0
M  V30 614 O -12.784 10.355 -0.094 0
M  V30 615 H -12.089 9.741 -0.33 0
M  V30 616 H -12.899 10.899 -0.872 0
M  V30 617 O -3.536 5.03 -0.112 0
M  V30 618 H -3.75 4.147 0.188 0
M  V30 619 H -2.963 5.383 0.568 0
M  V30 620 O 2.677 0.818 14.244 0
M  V30 621 H 2.433 0.826 13.318 0
M  V30 622 H 2.543 -0.089 14.519 0
M  V30 623 O 2.935 13.478 -7.281 0
M  V30 624 H 3.701 13.741 -6.771 0
M  V30 625 H 3.297 12.997 -8.026 0
M  V30 626 O 11.511 -9.24 9.475 0
M  V30 627 H 11.091 -8.883 10.257 0
M  V30 628 H 11.784 -10.121 9.73 0
M  V30 629 O -7.202 9.247 -5.546 0
M  V30 630 H -7.305 8.821 -6.398 0
M  V30 631 H -7.938 9.857 -5.493 0
M  V30 632 O 0.216 -15.42 -1.902 0
M  V30 633 H 0.475 -15.278 -0.992 0
M  V30 634 H 0.947 -15.903 -2.287 0
M  V30 635 O -14.068 -6.121 15.143 0
M  V30 636 H -14.053 -5.65 15.975 0
M  V30 637 H -13.307 -5.789 14.665 0
M  V30 638 O 4.283 13.255 0.385 0
M  V30 639 H 3.341 13.414 0.334 0
M  V30 640 H 4.41 12.841 1.239 0
M  V30 641 O -7.107 16.57 -9.319 0
M  V30 642 H -6.733 17.238 -8.745 0
M  V30 643 H -6.691 15.754 -9.042 0
M  V30 644 O -12.107 11.682 -2.409 0
M  V30 645 H -12.245 11.442 -3.326 0
M  V30 646 H -11.539 12.451 -2.445 0
M  V30 647 O -12.229 -13.713 -1.391 0
M  V30 648 H -12.867 -14.401 -1.582 0
M  V30 649 H -12.757 -12.969 -1.103 0
M  V30 650 O -16.05 13.979 9.431 0
M  V30 651 H -16.075 13.063 9.154 0
M  V30 652 H -16.154 13.945 10.382 0
M  V30 653 O 3.637 -5.33 -11.628 0
M  V30 654 H 3.538 -5.295 -10.676 0
M  V30 655 H 2.796 -5.027 -11.968 0
M  V30 656 O -14.626 3.353 2.303 0
M  V30 657 H -15.377 2.923 1.896 0
M  V30 658 H -14.108 3.68 1.567 0
M  V30 659 O -8.455 4.642 -15.199 0
M  V30 660 H -7.963 3.821 -15.167 0
M  V30 661 H -8.12 5.15 -14.46 0
M  V30 662 O 11.577 -6.326 15.691 0
M  V30 663 H 10.996 -6.194 14.942 0
M  V30 664 H 11.451 -7.242 15.935 0
M  V30 665 O 0.008 -6.874 3.47 0
M  V30 666 H 0.063 -6.518 2.583 0
M  V30 667 H 0.893 -7.189 3.658 0
M  V30 668 O 3.084 0.441 -8.142 0
M  V30 669 H 2.954 0.624 -7.212 0
M  V30 670 H 3.318 -0.487 -8.174 0
M  V30 671 O 9.538 -5.76 -15.521 0
M  V30 672 H 9.516 -5.344 -14.66 0
M  V30 673 H 10.375 -5.489 -15.898 0
M  V30 674 O -8.073 -13.261 13.459 0
M  V30 675 H -8.03 -12.971 12.548 0
M  V30 676 H -7.655 -14.123 13.456 0
M  V30 677 O -0.457 -0.194 12.661 0
M  V30 678 H 0.193 -0.578 12.072 0
M  V30 679 H -0.137 -0.401 13.539 0
M  V30 680 O 13.208 10.356 -9.592 0
M  V30 681 H 13.657 9.57 -9.904 0
M  V30 682 H 12.384 10.032 -9.228 0
M  V30 683 O 9.288 -3.118 14.265 0
M  V30 684 H 9.069 -3.608 13.472 0
M  V30 685 H 9.031 -2.217 14.07 0
M  V30 686 O -10.49 13.883 -2.987 0
M  V30 687 H -10.87 14.728 -3.228 0
M  V30 688 H -9.569 14.075 -2.812 0
M  V30 689 O -15.315 -2.771 6.126 0
M  V30 690 H -15.383 -2.212 6.9 0
M  V30 691 H -14.896 -3.571 6.443 0
M  V30 692 O 13.818 3.193 2.314 0
M  V30 693 H 13.362 2.721 3.01 0
M  V30 694 H 13.153 3.325 1.638 0
M  V30 695 O 15.767 5.614 1.994 0
M  V30 696 H 15.289 6.117 2.652 0
M  V30 697 H 15.118 5.01 1.634 0
M  V30 698 O 12.415 -7.664 -8.97 0
M  V30 699 H 12.694 -7.01 -8.328 0
M  V30 700 H 13.103 -7.655 -9.636 0
M  V30 701 O 15.401 8.094 5.953 0
M  V30 702 H 16.238 7.637 5.87 0
M  V30 703 H 15.365 8.364 6.87 0
M  V30 704 O 6.803 -9.717 -11.809 0
M  V30 705 H 6.786 -10.39 -11.128 0
M  V30 706 H 5.969 -9.257 -11.712 0
M  V30 707 O 4.183 -15.782 9.072 0
M  V30 708 H 3.26 -15.691 8.835 0
M  V30 709 H 4.34 -15.075 9.699 0
M  V30 710 O 3.34 -10.088 13.985 0
M  V30 711 H 2.679 -10.227 14.662 0
M  V30 712 H 3.051 -10.632 13.252 0
M  V30 713 O -4.103 8.158 7.991 0
M  V30 714 H -4.997 8.437 8.186 0
M  V30 715 H -3.931 7.45 8.612 0
M  V30 716 O -2.157 -16.116 1.631 0
M  V30 717 H -2.467 -16.957 1.968 0
M  V30 718 H -2.517 -16.065 0.746 0
M  V30 719 O 0.473 -5.303 16.186 0
M  V30 720 H -0.207 -4.761 15.787 0
M  V30 721 H 1.25 -5.149 15.649 0
M  V30 722 O 2.01 -1.205 -15.387 0
M  V30 723 H 2.447 -0.356 -15.448 0
M  V30 724 H 1.694 -1.376 -16.274 0
M  V30 725 O -11.475 10.379 -10.687 0
M  V30 726 H -10.985 11.193 -10.568 0
M  V30 727 H -10.824 9.688 -10.568 0
M  V30 728 O -15.441 16.35 -3.683 0
M  V30 729 H -14.814 15.742 -4.075 0
M  V30 730 H -16.298 16.014 -3.946 0
M  V30 731 O -15.343 9.237 -5.645 0
M  V30 732 H -15.62 9.571 -4.792 0
M  V30 733 H -15.993 9.579 -6.259 0
M  V30 734 O 7.394 9.74 7.165 0
M  V30 735 H 7.189 9.366 6.307 0
M  V30 736 H 8.24 10.17 7.043 0
M  V30 737 O -1.878 5.629 1.886 0
M  V30 738 H -1.594 6.495 1.592 0
M  V30 739 H -1.067 5.128 1.975 0
M  V30 740 O 7.445 -5.439 13.009 0
M  V30 741 H 6.914 -5.73 13.75 0
M  V30 742 H 8.281 -5.892 13.121 0
M  V30 743 O 9.824 6.541 4.677 0
M  V30 744 H 10.518 6.917 4.135 0
M  V30 745 H 9.083 7.136 4.564 0
M  V30 746 O -1.929 -5.552 -2.233 0
M  V30 747 H -1.963 -6.431 -1.856 0
M  V30 748 H -2.321 -4.989 -1.564 0
M  V30 749 O 7.016 7.511 12.383 0
M  V30 750 H 7.006 7.864 13.273 0
M  V30 751 H 7.939 7.325 12.21 0
M  V30 752 O 6.182 -3.465 3.289 0
M  V30 753 H 6.247 -3.364 4.239 0
M  V30 754 H 5.772 -2.654 2.989 0
M  V30 755 O -3.451 -0.583 11.978 0
M  V30 756 H -3.26 -1.488 11.734 0
M  V30 757 H -2.592 -0.188 12.128 0
M  V30 758 O 15.374 -2.575 12.753 0
M  V30 759 H 15.198 -3.415 13.176 0
M  V30 760 H 15.593 -2.802 11.849 0
M  V30 761 O 12.618 7.136 -4.222 0
M  V30 762 H 11.967 6.528 -4.571 0
M  V30 763 H 13.207 6.587 -3.705 0
M  V30 764 O 0.369 -9.134 -4.642 0
M  V30 765 H 1.188 -9.55 -4.372 0
M  V30 766 H 0.225 -8.445 -3.993 0
M  V30 767 O -0.654 -4.723 9.841 0
M  V30 768 H -0.296 -5.223 9.107 0
M  V30 769 H -0.917 -3.887 9.457 0
M  V30 770 O 0.185 10.666 12.526 0
M  V30 771 H 0.168 10.402 11.606 0
M  V30 772 H 0.975 10.255 12.878 0
M  V30 773 O -8.495 14.532 4.392 0
M  V30 774 H -8.786 13.99 5.126 0
M  V30 775 H -9.304 14.859 4 0
M  V30 776 O 3.482 5.69 14.364 0
M  V30 777 H 3.607 5.93 15.282 0
M  V30 778 H 3.964 6.356 13.874 0
M  V30 779 O 15.734 16.36 -4.615 0
M  V30 780 H 15 15.832 -4.301 0
M  V30 781 H 15.434 17.264 -4.529 0
M  V30 782 O 13.87 13.695 9.509 0
M  V30 783 H 13.512 14.046 10.325 0
M  V30 784 H 14.594 13.134 9.787 0
M  V30 785 O 10.229 -5.907 13.058 0
M  V30 786 H 11.129 -5.582 13.046 0
M  V30 787 H 10.133 -6.379 12.231 0
M  V30 788 O -12.112 -15.102 1.968 0
M  V30 789 H -12.331 -15.958 1.601 0
M  V30 790 H -11.249 -14.9 1.606 0
M  V30 791 O -0.525 9.926 15.028 0
M  V30 792 H -0.971 9.098 14.85 0
M  V30 793 H -0.513 10.378 14.184 0
M  V30 794 O -5.648 13.106 16.393 0
M  V30 795 H -6.133 12.731 15.658 0
M  V30 796 H -5.183 12.363 16.778 0
M  V30 797 O 10.771 12.974 -9.596 0
M  V30 798 H 10.829 13.766 -9.062 0
M  V30 799 H 10.688 13.296 -10.494 0
M  V30 800 O 3.577 -2.381 -10.585 0
M  V30 801 H 2.71 -2.747 -10.758 0
M  V30 802 H 3.701 -2.493 -9.642 0
M  V30 803 O 3.962 4.046 3.27 0
M  V30 804 H 3.154 4.526 3.454 0
M  V30 805 H 4.655 4.698 3.368 0
M  V30 806 O 5.884 7.313 0.526 0
M  V30 807 H 5.778 8.002 1.181 0
M  V30 808 H 5.014 6.921 0.448 0
M  V30 809 O -10.263 -11.769 3.221 0
M  V30 810 H -10.858 -11.763 3.971 0
M  V30 811 H -10.77 -11.381 2.508 0
M  V30 812 O -0.218 -8.286 -0.558 0
M  V30 813 H -1.174 -8.248 -0.581 0
M  V30 814 H -0.011 -9.21 -0.697 0
M  V30 815 O 17.272 11.193 -9.766 0
M  V30 816 H 16.52 11.486 -10.282 0
M  V30 817 H 16.887 10.794 -8.986 0
M  V30 818 O 3.152 -16.752 -15.901 0
M  V30 819 H 3.677 -17.207 -16.56 0
M  V30 820 H 3.793 -16.417 -15.273 0
M  V30 821 O 14.111 6.906 3.779 0
M  V30 822 H 13.601 6.323 4.341 0
M  V30 823 H 14.628 7.434 4.387 0
M  V30 824 O -13.983 -0.572 13.145 0
M  V30 825 H -14.745 -0.112 13.497 0
M  V30 826 H -14.135 -1.491 13.364 0
M  V30 827 O -11.968 -10.988 1.572 0
M  V30 828 H -12.314 -10.1 1.668 0
M  V30 829 H -11.61 -11.011 0.685 0
M  V30 830 O -16.132 11.307 12.668 0
M  V30 831 H -15.511 10.63 12.401 0
M  V30 832 H -15.808 12.107 12.254 0
M  V30 833 O 4.931 -8.794 4.383 0
M  V30 834 H 5.681 -8.787 4.978 0
M  V30 835 H 4.663 -9.713 4.346 0
M  V30 836 O -12.92 -4.931 -13.704 0
M  V30 837 H -12.903 -5.516 -12.947 0
M  V30 838 H -12.02 -4.935 -14.03 0
M  V30 839 O 6.934 1.952 11.065 0
M  V30 840 H 6.925 2.79 11.526 0
M  V30 841 H 6.299 2.061 10.357 0
M  V30 842 O -3.843 16.548 -11.104 0
M  V30 843 H -3.196 16.735 -11.784 0
M  V30 844 H -3.327 16.44 -10.305 0
M  V30 845 O 9.317 6.153 -6.734 0
M  V30 846 H 10.245 5.971 -6.588 0
M  V30 847 H 8.977 6.371 -5.866 0
M  V30 848 O -10.718 3.674 8.45 0
M  V30 849 H -10.509 3.906 9.354 0
M  V30 850 H -10.375 4.401 7.93 0
M  V30 851 O -15.724 -13.284 -14.793 0
M  V30 852 H -15.35 -13.847 -14.116 0
M  V30 853 H -16.649 -13.529 -14.824 0
M  V30 854 O -5.703 -15.053 3.515 0
M  V30 855 H -5.555 -15.537 2.703 0
M  V30 856 H -5.035 -14.367 3.511 0
M  V30 857 O 1.09 9.161 -16.148 0
M  V30 858 H 0.97 9.668 -16.951 0
M  V30 859 H 0.75 8.292 -16.36 0
M  V30 860 O -10.857 -13.012 -7.212 0
M  V30 861 H -11.411 -13.296 -6.485 0
M  V30 862 H -11.001 -13.667 -7.894 0
M  V30 863 O -3.239 -5.066 2.577 0
M  V30 864 H -2.959 -5.322 3.456 0
M  V30 865 H -3.091 -5.846 2.042 0
M  V30 866 O 7.294 -7.215 -0.902 0
M  V30 867 H 7.531 -6.288 -0.878 0
M  V30 868 H 7.565 -7.554 -0.049 0
M  V30 869 O 15.478 -4.967 14.194 0
M  V30 870 H 16.246 -5.529 14.09 0
M  V30 871 H 15.274 -5.01 15.128 0
M  V30 872 O -13.942 -9.858 -9.979 0
M  V30 873 H -14.428 -9.89 -9.154 0
M  V30 874 H -13.894 -10.77 -10.264 0
M  V30 875 O -2.483 -2.827 0.692 0
M  V30 876 H -3.25 -2.355 0.367 0
M  V30 877 H -2.768 -3.739 0.746 0
M  V30 878 O -16.637 1.155 -11.054 0
M  V30 879 H -16.188 0.429 -10.621 0
M  V30 880 H -16.129 1.31 -11.85 0
M  V30 881 O -2.583 13.294 -11.743 0
M  V30 882 H -2.876 13.504 -12.629 0
M  V30 883 H -2.829 12.377 -11.62 0
M  V30 884 O 6.328 -2.638 7.527 0
M  V30 885 H 6.088 -3.556 7.402 0
M  V30 886 H 5.612 -2.271 8.046 0
M  V30 887 O 1.165 -12.432 -3.355 0
M  V30 888 H 0.611 -12.241 -4.112 0
M  V30 889 H 1.688 -13.187 -3.625 0
M  V30 890 O 9.555 1.56 2.844 0
M  V30 891 H 9.87 1.835 1.983 0
M  V30 892 H 9.565 0.604 2.808 0
M  V30 893 O -14.741 -14.95 -4.144 0
M  V30 894 H -14.87 -15.895 -4.217 0
M  V30 895 H -14.669 -14.647 -5.049 0
M  V30 896 O 12.762 12.483 16.37 0
M  V30 897 H 12.915 11.596 16.695 0
M  V30 898 H 13.586 12.73 15.95 0
M  V30 899 O 8.091 -3.291 -0.918 0
M  V30 900 H 8.101 -3.748 -0.077 0
M  V30 901 H 7.258 -2.819 -0.924 0
M  V30 902 O -12.339 -8.674 5.484 0
M  V30 903 H -12.667 -7.944 4.96 0
M  V30 904 H -12.73 -8.544 6.348 0
M  V30 905 O 7.449 -9.43 -4.643 0
M  V30 906 H 7.296 -8.551 -4.989 0
M  V30 907 H 6.912 -9.474 -3.852 0
M  V30 908 O 10.684 -9.083 -16.465 0
M  V30 909 H 9.798 -8.834 -16.728 0
M  V30 910 H 10.712 -8.911 -15.524 0
M  V30 911 O 5.894 11.237 -5.935 0
M  V30 912 H 6.306 10.835 -6.7 0
M  V30 913 H 6.265 12.118 -5.899 0
M  V30 914 O 0.399 -1.051 -0.462 0
M  V30 915 H -0.217 -1.685 -0.827 0
M  V30 916 H 1.142 -1.579 -0.17 0
M  V30 917 O 3.023 -6.775 -4.912 0
M  V30 918 H 2.559 -6.188 -5.509 0
M  V30 919 H 2.431 -6.873 -4.165 0
M  V30 920 O -1.309 -16.469 -4.188 0
M  V30 921 H -0.688 -16.317 -4.901 0
M  V30 922 H -0.936 -16 -3.441 0
M  V30 923 O -13.64 -8.551 12.825 0
M  V30 924 H -13.199 -8.032 13.498 0
M  V30 925 H -13.416 -9.458 13.037 0
M  V30 926 O 9.203 3.397 0.576 0
M  V30 927 H 8.619 3.645 -0.14 0
M  V30 928 H 9.615 4.218 0.845 0
M  V30 929 O -14.047 -5.285 -9.336 0
M  V30 930 H -13.375 -4.732 -8.937 0
M  V30 931 H -14.802 -4.706 -9.441 0
M  V30 932 O -12.861 -12.429 -4.748 0
M  V30 933 H -13.539 -12.217 -4.107 0
M  V30 934 H -13.072 -11.888 -5.508 0
M  V30 935 O 6.105 -15.67 2.297 0
M  V30 936 H 6.988 -15.385 2.533 0
M  V30 937 H 5.525 -15.083 2.783 0
M  V30 938 O -15.301 11.88 5.087 0
M  V30 939 H -16.229 11.658 5.011 0
M  V30 940 H -14.916 11.143 5.562 0
M  V30 941 O -6.543 11.676 14.131 0
M  V30 942 H -6.561 10.724 14.036 0
M  V30 943 H -7.323 11.978 13.667 0
M  V30 944 O 8.052 -3.25 -3.824 0
M  V30 945 H 7.494 -4.016 -3.96 0
M  V30 946 H 8.317 -3.305 -2.906 0
M  V30 947 O -15.596 17.143 1.999 0
M  V30 948 H -15.345 17.237 1.08 0
M  V30 949 H -16.361 16.568 1.981 0
M  V30 950 O 10.545 -11.179 5.156 0
M  V30 951 H 11.297 -10.655 4.878 0
M  V30 952 H 10.299 -11.678 4.378 0
M  V30 953 O -3.857 1.88 -9.405 0
M  V30 954 H -3.216 1.451 -9.973 0
M  V30 955 H -3.518 1.748 -8.519 0
M  V30 956 O -3.165 -6.376 -6.81 0
M  V30 957 H -3.999 -6.672 -6.447 0
M  V30 958 H -2.671 -7.181 -6.964 0
M  V30 959 O -11.104 -6.907 13.9 0
M  V30 960 H -10.81 -7.449 13.168 0
M  V30 961 H -10.67 -7.281 14.666 0
M  V30 962 O 14.304 12.94 2.686 0
M  V30 963 H 13.438 13.348 2.691 0
M  V30 964 H 14.126 12 2.642 0
M  V30 965 O -7.702 1.8 14.989 0
M  V30 966 H -8.127 1.414 14.223 0
M  V30 967 H -7.226 2.556 14.644 0
M  V30 968 O -4.768 4.85 -7.328 0
M  V30 969 H -4.373 4.81 -6.457 0
M  V30 970 H -4.49 4.039 -7.755 0
M  V30 971 O 2.096 8.557 1.749 0
M  V30 972 H 1.66 9.371 1.496 0
M  V30 973 H 2.792 8.832 2.345 0
M  V30 974 O 7.064 -6.824 -15.523 0
M  V30 975 H 8.018 -6.751 -15.541 0
M  V30 976 H 6.775 -6.065 -15.016 0
M  V30 977 O -15.816 -2.173 9.386 0
M  V30 978 H -15.353 -2.913 9.779 0
M  V30 979 H -15.276 -1.412 9.599 0
M  V30 980 O -15.929 13.031 2.23 0
M  V30 981 H -15.399 12.39 2.704 0
M  V30 982 H -16.828 12.715 2.324 0
M  V30 983 O -10.637 10.545 5.454 0
M  V30 984 H -10.328 10.382 4.562 0
M  V30 985 H -11.488 10.968 5.34 0
M  V30 986 O 7.937 -5.563 9.628 0
M  V30 987 H 7.019 -5.405 9.849 0
M  V30 988 H 8.181 -6.328 10.15 0
M  V30 989 O 8.883 1.288 8.884 0
M  V30 990 H 8.94 2.1 8.38 0
M  V30 991 H 8.256 1.481 9.58 0
M  V30 992 O 15.752 -7.036 16.088 0
M  V30 993 H 16.541 -7.15 15.559 0
M  V30 994 H 16.078 -6.834 16.965 0
M  V30 995 O -4.615 3.72 -2.559 0
M  V30 996 H -4.232 4.076 -3.361 0
M  V30 997 H -4.018 3.996 -1.865 0
M  V30 998 O 7.356 -14.827 -1.436 0
M  V30 999 H 8.27 -14.542 -1.446 0
M  V30 1000 H 6.871 -14.092 -1.809 0
M  V30 1001 O 11.544 12.235 9.062 0
M  V30 1002 H 10.831 12.847 9.243 0
M  V30 1003 H 12.341 12.754 9.18 0
M  V30 1004 O -16.467 3.251 -8.829 0
M  V30 1005 H -17.021 4.032 -8.825 0
M  V30 1006 H -16.532 2.916 -9.723 0
M  V30 1007 O -1.825 1.731 -13.595 0
M  V30 1008 H -2.467 1.099 -13.918 0
M  V30 1009 H -2.338 2.347 -13.071 0
M  V30 1010 O -7.617 8.033 -0.084 0
M  V30 1011 H -7.022 8.573 0.435 0
M  V30 1012 H -7.06 7.347 -0.452 0
M  V30 1013 O 7.762 -16.593 -14.93 0
M  V30 1014 H 8.064 -17.007 -15.738 0
M  V30 1015 H 7.593 -15.683 -15.175 0
M  V30 1016 O 7 -15.94 -4.851 0
M  V30 1017 H 7.566 -15.236 -5.167 0
M  V30 1018 H 7.01 -16.59 -5.553 0
M  V30 1019 O -6.519 2.139 11.047 0
M  V30 1020 H -5.888 2.546 10.453 0
M  V30 1021 H -6.253 1.221 11.089 0
M  V30 1022 O 4.222 -14.288 -6.795 0
M  V30 1023 H 4.412 -15.067 -6.273 0
M  V30 1024 H 5.048 -14.084 -7.233 0
M  V30 1025 O -7.908 -8.333 -11.936 0
M  V30 1026 H -8.224 -9.067 -12.462 0
M  V30 1027 H -8.064 -8.602 -11.03 0
M  V30 1028 O -9.303 12.089 -12.925 0
M  V30 1029 H -9.556 12.794 -13.522 0
M  V30 1030 H -8.412 12.312 -12.655 0
M  V30 1031 O -6.95 6.085 -9.518 0
M  V30 1032 H -6.194 5.543 -9.291 0
M  V30 1033 H -6.896 6.187 -10.468 0
M  V30 1034 O -15.436 2.494 -4.326 0
M  V30 1035 H -15.207 3.388 -4.578 0
M  V30 1036 H -14.733 1.955 -4.69 0
M  V30 1037 O 3.254 -10.332 -15.401 0
M  V30 1038 H 3.88 -9.699 -15.048 0
M  V30 1039 H 2.415 -9.871 -15.389 0
M  V30 1040 O -6.002 -5.439 12.101 0
M  V30 1041 H -6.121 -5.945 12.905 0
M  V30 1042 H -6.889 -5.193 11.839 0
M  V30 1043 O -2.912 -0.257 -10.926 0
M  V30 1044 H -2.493 -0.889 -10.342 0
M  V30 1045 H -2.502 -0.409 -11.778 0
M  V30 1046 O 16.425 16.972 -13.506 0
M  V30 1047 H 15.683 17.411 -13.92 0
M  V30 1048 H 16.89 16.551 -14.229 0
M  V30 1049 O -15.424 -7.328 -0.156 0
M  V30 1050 H -15.35 -8.237 -0.448 0
M  V30 1051 H -14.77 -6.856 -0.672 0
M  V30 1052 O -14.268 5.044 -8.912 0
M  V30 1053 H -15.029 5.62 -8.836 0
M  V30 1054 H -14.091 5.004 -9.852 0
M  V30 1055 O -11.888 9.19 -16.243 0
M  V30 1056 H -12.781 9.361 -16.542 0
M  V30 1057 H -11.836 8.237 -16.174 0
M  V30 1058 O -2.252 2.548 3.078 0
M  V30 1059 H -1.731 3.226 3.511 0
M  V30 1060 H -2.032 1.742 3.546 0
M  V30 1061 O -9.914 -1.702 8.43 0
M  V30 1062 H -9.174 -2.04 8.933 0
M  V30 1063 H -9.666 -1.84 7.515 0
M  V30 1064 O 5.92 0.399 14.098 0
M  V30 1065 H 5.899 0.484 15.051 0
M  V30 1066 H 5.361 1.109 13.782 0
M  V30 1067 O -9.625 8.68 13.94 0
M  V30 1068 H -9.217 8.143 14.619 0
M  V30 1069 H -10.26 8.098 13.523 0
M  V30 1070 O 4.043 -1.452 12.116 0
M  V30 1071 H 4.766 -1.401 11.491 0
M  V30 1072 H 3.285 -1.121 11.634 0
M  V30 1073 O 14.367 -2.963 16.24 0
M  V30 1074 H 13.774 -3.335 16.893 0
M  V30 1075 H 13.789 -2.574 15.584 0
M  V30 1076 O 12.057 4.987 -6.909 0
M  V30 1077 H 12.804 4.439 -6.669 0
M  V30 1078 H 12.319 5.405 -7.729 0
M  V30 1079 O 14.045 0.371 16.424 0
M  V30 1080 H 14.044 0.302 15.47 0
M  V30 1081 H 13.511 -0.367 16.719 0
M  V30 1082 O -9.823 8.274 9.763 0
M  V30 1083 H -10.24 8.79 10.452 0
M  V30 1084 H -10.023 7.366 9.989 0
M  V30 1085 O 9.896 3.777 7.945 0
M  V30 1086 H 9.51 4.612 7.679 0
M  V30 1087 H 10.436 3.514 7.2 0
M  V30 1088 O 15.117 -1.621 -6.798 0
M  V30 1089 H 15.907 -1.908 -7.256 0
M  V30 1090 H 14.961 -0.734 -7.12 0
M  V30 1091 O 5.233 14.648 -6.407 0
M  V30 1092 H 5.319 15.51 -6.815 0
M  V30 1093 H 6.087 14.486 -6.006 0
M  V30 1094 O 15.505 11.669 10.978 0
M  V30 1095 H 14.689 11.169 10.965 0
M  V30 1096 H 16.054 11.218 11.62 0
M  V30 1097 O 12.86 15.416 1.04 0
M  V30 1098 H 12.696 16.215 0.539 0
M  V30 1099 H 11.994 15.135 1.333 0
M  V30 1100 O -1.205 15.673 -14.817 0
M  V30 1101 H -1.539 14.8 -14.616 0
M  V30 1102 H -1.435 15.813 -15.736 0
M  V30 1103 O 2.568 8.494 -13.771 0
M  V30 1104 H 1.799 8.801 -14.25 0
M  V30 1105 H 2.36 7.589 -13.538 0
M  V30 1106 O -5.728 11.7 -4.985 0
M  V30 1107 H -4.8 11.548 -5.165 0
M  V30 1108 H -6.184 11.036 -5.502 0
M  V30 1109 O -13.114 14.344 -5.221 0
M  V30 1110 H -13.899 14.191 -5.747 0
M  V30 1111 H -12.718 13.478 -5.123 0
M  V30 1112 O -13.356 -1.352 -1.456 0
M  V30 1113 H -13.685 -0.858 -2.207 0
M  V30 1114 H -13.18 -0.688 -0.79 0
M  V30 1115 O 14.126 -9.036 -13.957 0
M  V30 1116 H 14.188 -9.644 -13.219 0
M  V30 1117 H 13.187 -8.939 -14.11 0
M  V30 1118 O 2.009 -3.703 10.921 0
M  V30 1119 H 2.503 -3.936 11.707 0
M  V30 1120 H 1.223 -4.249 10.961 0
M  V30 1121 O -16.905 0.479 6.229 0
M  V30 1122 H -16.858 0.621 5.284 0
M  V30 1123 H -16.038 0.147 6.465 0
M  V30 1124 O 14.215 9.487 -12.484 0
M  V30 1125 H 13.528 8.882 -12.203 0
M  V30 1126 H 14.953 9.297 -11.906 0
M  V30 1127 O 6.164 -6.461 15.218 0
M  V30 1128 H 6.706 -6.992 15.802 0
M  V30 1129 H 5.435 -7.034 14.981 0
M  V30 1130 O -4.406 8.477 15.598 0
M  V30 1131 H -4.805 9.192 16.093 0
M  V30 1132 H -4.416 7.733 16.2 0
M  V30 1133 O 3.46 13.386 13.088 0
M  V30 1134 H 4.388 13.52 12.897 0
M  V30 1135 H 3.4 13.443 14.041 0
M  V30 1136 O 16.139 -4.735 -11.599 0
M  V30 1137 H 16.627 -5.518 -11.854 0
M  V30 1138 H 15.311 -4.801 -12.074 0
M  V30 1139 O -16.684 10.14 -3.478 0
M  V30 1140 H -16.687 9.838 -2.57 0
M  V30 1141 H -17.507 9.814 -3.842 0
M  V30 1142 O -1.451 2.376 -1.404 0
M  V30 1143 H -1.267 1.592 -1.922 0
M  V30 1144 H -1.066 2.193 -0.547 0
M  V30 1145 O -4.919 12.218 -13.699 0
M  V30 1146 H -5.546 11.596 -13.328 0
M  V30 1147 H -5.005 12.999 -13.153 0
M  V30 1148 O -1.945 -2.512 -15.71 0
M  V30 1149 H -1.125 -2.11 -15.996 0
M  V30 1150 H -2.065 -3.257 -16.299 0
M  V30 1151 O -11.095 15.836 -11.341 0
M  V30 1152 H -10.351 16.225 -11.802 0
M  V30 1153 H -11.828 15.927 -11.95 0
M  V30 1154 O 1.013 9.067 -7.16 0
M  V30 1155 H 0.621 9.717 -7.744 0
M  V30 1156 H 0.437 9.055 -6.396 0
M  V30 1157 O -6.03 6.268 -1.384 0
M  V30 1158 H -5.674 5.409 -1.159 0
M  V30 1159 H -6.253 6.2 -2.313 0
M  V30 1160 O 12.085 -1.272 -8.148 0
M  V30 1161 H 12.566 -1.118 -7.335 0
M  V30 1162 H 11.345 -0.666 -8.107 0
M  V30 1163 O 3.538 -15.782 -9.424 0
M  V30 1164 H 3.335 -14.899 -9.116 0
M  V30 1165 H 4.271 -15.664 -10.028 0
M  V30 1166 O 5.789 -5.233 6.417 0
M  V30 1167 H 6.561 -5.66 6.787 0
M  V30 1168 H 5.558 -5.771 5.659 0
M  V30 1169 O -11.185 -3.382 -1.021 0
M  V30 1170 H -11.807 -3.539 -0.311 0
M  V30 1171 H -11.11 -2.429 -1.068 0
M  V30 1172 O -13.071 6.461 -4.872 0
M  V30 1173 H -12.913 7.398 -4.986 0
M  V30 1174 H -12.344 6.16 -4.327 0
M  V30 1175 O 15.903 16.524 10.487 0
M  V30 1176 H 15.486 17.283 10.079 0
M  V30 1177 H 16.326 16.064 9.763 0
M  V30 1178 O 0.18 1.636 0.765 0
M  V30 1179 H 0.327 1.354 1.668 0
M  V30 1180 H 0.352 0.854 0.239 0
M  V30 1181 O 8.026 2.894 -13.416 0
M  V30 1182 H 8.464 3.604 -13.884 0
M  V30 1183 H 8.566 2.75 -12.639 0
M  V30 1184 O -0.346 11.344 -14.319 0
M  V30 1185 H 0.23 12.018 -13.958 0
M  V30 1186 H 0.249 10.663 -14.631 0
M  V30 1187 O 13.605 -4.331 -2.176 0
M  V30 1188 H 12.716 -4.134 -1.882 0
M  V30 1189 H 13.908 -5.019 -1.583 0
M  V30 1190 O 9.019 -1.332 -9.891 0
M  V30 1191 H 8.093 -1.537 -9.768 0
M  V30 1192 H 9.414 -2.159 -10.166 0
M  V30 1193 O -0.179 -6.765 -11.604 0
M  V30 1194 H 0.523 -7.061 -11.025 0
M  V30 1195 H 0.121 -5.917 -11.932 0
M  V30 1196 O -0.647 -0.436 15.672 0
M  V30 1197 H -0.304 0.219 16.281 0
M  V30 1198 H -1.584 -0.247 15.619 0
M  V30 1199 O -14.008 -13.623 -7.599 0
M  V30 1200 H -13.591 -12.768 -7.71 0
M  V30 1201 H -14.666 -13.66 -8.294 0
M  V30 1202 O 8.059 3.459 -2.229 0
M  V30 1203 H 7.445 2.725 -2.202 0
M  V30 1204 H 8.837 3.105 -2.661 0
M  V30 1205 O 12.633 -4.839 8.549 0
M  V30 1206 H 12.002 -5.557 8.499 0
M  V30 1207 H 12.095 -4.048 8.574 0
M  V30 1208 O -8.712 -16.695 -4.575 0
M  V30 1209 H -8.656 -15.775 -4.317 0
M  V30 1210 H -8.834 -16.671 -5.524 0
M  V30 1211 O -6.753 -10.204 13.605 0
M  V30 1212 H -7.206 -10.048 12.776 0
M  V30 1213 H -6.356 -11.068 13.502 0
M  V30 1214 O -14.332 -8.765 2.154 0
M  V30 1215 H -14.556 -8.139 2.842 0
M  V30 1216 H -14.36 -8.253 1.345 0
M  V30 1217 O 5.426 6.684 6.122 0
M  V30 1218 H 5.223 7.594 5.904 0
M  V30 1219 H 5.926 6.364 5.372 0
M  V30 1220 O -13.764 -14.88 13.244 0
M  V30 1221 H -13.86 -13.983 12.924 0
M  V30 1222 H -14.303 -15.405 12.652 0
M  V30 1223 O 0.426 -15.567 -16.239 0
M  V30 1224 H 0.271 -14.917 -15.553 0
M  V30 1225 H 1.309 -15.893 -16.064 0
M  V30 1226 O -14.998 -3.171 -12.571 0
M  V30 1227 H -14.907 -4.08 -12.287 0
M  V30 1228 H -14.196 -2.744 -12.27 0
M  V30 1229 O -15.477 -16.891 5.635 0
M  V30 1230 H -15.705 -17.719 6.057 0
M  V30 1231 H -16.316 -16.526 5.353 0
M  V30 1232 O -16.938 -1.734 -14.178 0
M  V30 1233 H -17.669 -1.749 -13.56 0
M  V30 1234 H -16.22 -2.16 -13.711 0
M  V30 1235 O -1.135 4.673 5.118 0
M  V30 1236 H -1.749 5.407 5.132 0
M  V30 1237 H -0.889 4.548 6.035 0
M  V30 1238 O -3.031 -16.446 -1.093 0
M  V30 1239 H -2.667 -15.856 -1.753 0
M  V30 1240 H -3.913 -16.643 -1.408 0
M  V30 1241 O 14.333 11.318 7.475 0
M  V30 1242 H 14.592 11.233 6.558 0
M  V30 1243 H 14.005 12.214 7.55 0
M  V30 1244 O 0.798 -6.871 -2.711 0
M  V30 1245 H 0.061 -6.26 -2.745 0
M  V30 1246 H 0.707 -7.31 -1.866 0
M  V30 1247 O -4.487 3.999 -14.65 0
M  V30 1248 H -4.008 4.229 -13.853 0
M  V30 1249 H -4.456 3.043 -14.68 0
M  V30 1250 O 9.746 7.425 11.991 0
M  V30 1251 H 10.398 7.452 12.691 0
M  V30 1252 H 9.966 6.641 11.488 0
M  V30 1253 O -11.896 -16.712 -1.353 0
M  V30 1254 H -11.855 -17.113 -2.221 0
M  V30 1255 H -11.199 -16.055 -1.359 0
M  V30 1256 O -17.071 10.043 3.363 0
M  V30 1257 H -16.182 10.265 3.085 0
M  V30 1258 H -17.402 9.469 2.673 0
M  V30 1259 O 3.818 -3.432 -15.159 0
M  V30 1260 H 3.368 -2.6 -15.302 0
M  V30 1261 H 3.262 -4.083 -15.587 0
M  V30 1262 O -14.774 -11.745 4.856 0
M  V30 1263 H -15.353 -11.035 4.581 0
M  V30 1264 H -15.366 -12.458 5.095 0
M  V30 1265 O -11.516 -7.466 2.008 0
M  V30 1266 H -11.9 -6.956 1.295 0
M  V30 1267 H -12.186 -7.465 2.692 0
M  V30 1268 O -3.899 5.655 16.26 0
M  V30 1269 H -4.102 5.15 15.473 0
M  V30 1270 H -3.838 5.001 16.956 0
M  V30 1271 O -16.536 0.025 14.583 0
M  V30 1272 H -17.419 0.22 14.27 0
M  V30 1273 H -16.652 -0.709 15.187 0
M  V30 1274 O -15.17 16.268 14.398 0
M  V30 1275 H -14.292 16.15 14.761 0
M  V30 1276 H -15.516 17.037 14.851 0
M  V30 1277 O 11.843 -1.062 -3.017 0
M  V30 1278 H 11.4 -1.733 -2.497 0
M  V30 1279 H 12.774 -1.201 -2.845 0
M  V30 1280 O -12.69 16.516 7.204 0
M  V30 1281 H -12.949 17.286 6.698 0
M  V30 1282 H -12.814 15.781 6.603 0
M  V30 1283 O 4.827 16.393 6.024 0
M  V30 1284 H 4.922 15.48 6.297 0
M  V30 1285 H 3.889 16.569 6.101 0
M  V30 1286 O 7.477 -11.524 5.056 0
M  V30 1287 H 8.311 -11.989 4.989 0
M  V30 1288 H 7.293 -11.231 4.164 0
M  V30 1289 O 2.44 6.13 11.311 0
M  V30 1290 H 2.298 6.72 12.051 0
M  V30 1291 H 3.345 6.292 11.045 0
M  V30 1292 O 8.059 5.887 7.403 0
M  V30 1293 H 7.424 5.198 7.598 0
M  V30 1294 H 7.651 6.396 6.701 0
M  V30 1295 O -6.406 -16.666 -11.842 0
M  V30 1296 H -6.769 -16.885 -10.983 0
M  V30 1297 H -5.458 -16.664 -11.708 0
M  V30 1298 O -13.369 -2.353 3.119 0
M  V30 1299 H -13.047 -3.002 3.745 0
M  V30 1300 H -14.309 -2.299 3.291 0
M  V30 1301 O 16.731 -14.732 -0.075 0
M  V30 1302 H 16.784 -15.683 -0.173 0
M  V30 1303 H 16.226 -14.601 0.727 0
M  V30 1304 O -5.128 -5.9 -4.697 0
M  V30 1305 H -5.539 -5.088 -4.994 0
M  V30 1306 H -5.146 -5.842 -3.742 0
M  V30 1307 O 12.017 -15.124 -3.263 0
M  V30 1308 H 11.313 -15.753 -3.11 0
M  V30 1309 H 12.291 -15.285 -4.166 0
M  V30 1310 O -12.445 2.44 4.643 0
M  V30 1311 H -11.711 1.856 4.45 0
M  V30 1312 H -13.223 1.896 4.522 0
M  V30 1313 O 9.08 2.901 -16.652 0
M  V30 1314 H 8.256 3.247 -16.308 0
M  V30 1315 H 9.449 2.395 -15.928 0
M  V30 1316 O 1.363 16.507 -10.515 0
M  V30 1317 H 1.965 17.095 -10.059 0
M  V30 1318 H 1.807 16.299 -11.337 0
M  V30 1319 O -4.223 8.354 -0.884 0
M  V30 1320 H -4.123 7.444 -1.162 0
M  V30 1321 H -4.445 8.828 -1.685 0
M  V30 1322 O -12.634 -9.202 -0.422 0
M  V30 1323 H -13.51 -9.523 -0.635 0
M  V30 1324 H -12.666 -8.266 -0.622 0
M  V30 1325 O 9.515 1.258 -3.234 0
M  V30 1326 H 10.097 0.861 -2.586 0
M  V30 1327 H 9.458 0.608 -3.935 0
M  V30 1328 O -5.062 4.12 -10.708 0
M  V30 1329 H -4.263 4.551 -11.01 0
M  V30 1330 H -4.753 3.349 -10.23 0
M  V30 1331 O -6.206 -2.99 -16.531 0
M  V30 1332 H -5.819 -2.512 -15.797 0
M  V30 1333 H -6.449 -3.839 -16.163 0
M  V30 1334 O 10.99 -16.818 -16.527 0
M  V30 1335 H 10.889 -16.458 -15.646 0
M  V30 1336 H 10.836 -16.073 -17.109 0
M  V30 1337 O 8.708 9.184 -2.839 0
M  V30 1338 H 8.346 8.896 -2 0
M  V30 1339 H 8.597 8.431 -3.419 0
M  V30 1340 O -10.992 -15.994 13.683 0
M  V30 1341 H -11.783 -15.587 13.329 0
M  V30 1342 H -10.543 -15.286 14.144 0
M  V30 1343 O 2.843 -14.452 -4.349 0
M  V30 1344 H 3.604 -14.796 -3.882 0
M  V30 1345 H 2.33 -15.227 -4.576 0
M  V30 1346 O 7.647 16.856 14.71 0
M  V30 1347 H 8.055 16.295 15.37 0
M  V30 1348 H 8.374 17.146 14.159 0
M  V30 1349 O -9.528 -14.582 8.735 0
M  V30 1350 H -9.956 -14.092 8.032 0
M  V30 1351 H -8.703 -14.879 8.353 0
M  V30 1352 O -5.064 -1.897 0.447 0
M  V30 1353 H -5.796 -1.764 -0.156 0
M  V30 1354 H -5.406 -2.497 1.11 0
M  V30 1355 O -12.279 16.251 1.342 0
M  V30 1356 H -11.957 16.39 0.452 0
M  V30 1357 H -12.922 15.547 1.258 0
M  V30 1358 O 13.484 -7.745 11.888 0
M  V30 1359 H 13.022 -6.921 11.735 0
M  V30 1360 H 12.959 -8.196 12.549 0
M  V30 1361 O -6.403 5.107 -12.892 0
M  V30 1362 H -6.013 4.739 -12.099 0
M  V30 1363 H -5.898 4.722 -13.608 0
M  V30 1364 O -0.944 9.347 7.563 0
M  V30 1365 H -0.794 8.953 6.704 0
M  V30 1366 H -1.773 9.817 7.469 0
M  V30 1367 O -9.293 11.057 -5.223 0
M  V30 1368 H -10.203 10.892 -4.975 0
M  V30 1369 H -9.283 11.972 -5.505 0
M  V30 1370 O -5.673 3.708 13.192 0
M  V30 1371 H -6.106 3.459 12.375 0
M  V30 1372 H -6.032 4.57 13.401 0
M  V30 1373 O 8.98 10.197 12.488 0
M  V30 1374 H 9.811 10.383 12.924 0
M  V30 1375 H 9.099 9.328 12.105 0
M  V30 1376 O 16.484 7.732 15.692 0
M  V30 1377 H 17.238 7.842 16.271 0
M  V30 1378 H 16.35 6.785 15.65 0
M  V30 1379 O -12.174 -11.593 5.107 0
M  V30 1380 H -12.104 -10.674 4.847 0
M  V30 1381 H -13.095 -11.813 4.964 0
M  V30 1382 O 7.812 7.889 -9.887 0
M  V30 1383 H 8.544 7.337 -10.163 0
M  V30 1384 H 7.381 7.388 -9.195 0
M  V30 1385 O -9.134 16.931 -12.962 0
M  V30 1386 H -9.091 16.487 -13.809 0
M  V30 1387 H -8.435 17.584 -12.997 0
M  V30 1388 O 0.426 1.597 -15.417 0
M  V30 1389 H -0.453 1.721 -15.058 0
M  V30 1390 H 1.005 2.024 -14.786 0
M  V30 1391 O 4.974 16.799 14.993 0
M  V30 1392 H 4.932 16.978 14.053 0
M  V30 1393 H 5.904 16.653 15.169 0
M  V30 1394 O -4.477 6.254 -4.037 0
M  V30 1395 H -5.088 6.149 -4.766 0
M  V30 1396 H -4.543 7.179 -3.8 0
M  V30 1397 O -7.017 -5.749 -15.332 0
M  V30 1398 H -6.374 -6.029 -14.681 0
M  V30 1399 H -7.843 -5.708 -14.85 0
M  V30 1400 O 6.081 -9.282 -2.187 0
M  V30 1401 H 6.51 -8.541 -1.76 0
M  V30 1402 H 5.203 -9.302 -1.807 0
M  V30 1403 O -3.234 -15.702 11.488 0
M  V30 1404 H -3.49 -15.425 12.368 0
M  V30 1405 H -3.281 -16.657 11.514 0
M  V30 1406 O -14.342 14.691 -16.128 0
M  V30 1407 H -14.467 14.059 -15.42 0
M  V30 1408 H -13.99 14.172 -16.852 0
M  V30 1409 O -10.51 3.924 -13.683 0
M  V30 1410 H -9.91 4.23 -14.363 0
M  V30 1411 H -10.77 3.048 -13.969 0
M  V30 1412 O 2.331 14.812 3.534 0
M  V30 1413 H 2.345 15.632 3.039 0
M  V30 1414 H 1.806 15.01 4.31 0
M  V30 1415 O -4.888 1.046 -14.747 0
M  V30 1416 H -5.745 1.449 -14.885 0
M  V30 1417 H -5.044 0.108 -14.858 0
M  V30 1418 O -1.064 -15.859 14.456 0
M  V30 1419 H -0.463 -15.95 15.196 0
M  V30 1420 H -0.682 -16.403 13.768 0
M  V30 1421 O -13.877 13.026 -14.051 0
M  V30 1422 H -13.123 12.439 -14.101 0
M  V30 1423 H -14.636 12.446 -14.101 0
M  V30 1424 O 4.831 13.907 7.498 0
M  V30 1425 H 5.432 13.868 8.242 0
M  V30 1426 H 4.012 14.234 7.869 0
M  V30 1427 O -2.398 14.934 15.121 0
M  V30 1428 H -2.002 14.063 15.106 0
M  V30 1429 H -1.968 15.406 14.408 0
M  V30 1430 O 0.227 12.014 4.233 0
M  V30 1431 H 0.318 11.648 5.113 0
M  V30 1432 H 0.816 12.769 4.224 0
M  V30 1433 O -16.204 11.013 16.071 0
M  V30 1434 H -16.96 11.121 15.494 0
M  V30 1435 H -16.54 11.208 16.946 0
M  V30 1436 O -4.678 11.805 9.609 0
M  V30 1437 H -4.913 12.572 10.131 0
M  V30 1438 H -5.407 11.698 8.998 0
M  V30 1439 O -14.608 -4.437 -15.888 0
M  V30 1440 H -14.019 -4.567 -15.145 0
M  V30 1441 H -15.392 -4.041 -15.507 0
M  V30 1442 O 14.424 16.422 -11.148 0
M  V30 1443 H 15.078 16.898 -11.659 0
M  V30 1444 H 14.75 16.458 -10.248 0
M  V30 1445 O -8.851 11.526 10.455 0
M  V30 1446 H -9.346 11.604 9.64 0
M  V30 1447 H -9.446 11.855 11.129 0
M  V30 1448 O 14.819 -10.972 -15.906 0
M  V30 1449 H 14.397 -10.295 -15.377 0
M  V30 1450 H 15.23 -10.492 -16.625 0
M  V30 1451 O 8.937 -0.585 -5.273 0
M  V30 1452 H 8.011 -0.638 -5.511 0
M  V30 1453 H 9.231 -1.496 -5.247 0
M  V30 1454 O -13.376 2.557 -8.561 0
M  V30 1455 H -13.736 3.442 -8.617 0
M  V30 1456 H -12.762 2.594 -7.827 0
M  V30 1457 O 10.789 -14.276 15.316 0
M  V30 1458 H 10.07 -13.7 15.058 0
M  V30 1459 H 11.313 -13.749 15.921 0
M  V30 1460 O -16.899 -16.791 -8.596 0
M  V30 1461 H -16.127 -16.433 -8.156 0
M  V30 1462 H -16.871 -16.412 -9.475 0
M  V30 1463 O 16.196 -0.612 10.476 0
M  V30 1464 H 16.768 -1.165 9.944 0
M  V30 1465 H 16.085 -1.098 11.294 0
M  V30 1466 O 14.007 3.094 -7.003 0
M  V30 1467 H 14.273 2.501 -6.3 0
M  V30 1468 H 13.663 2.518 -7.686 0
M  V30 1469 O -4.465 2.3 1.17 0
M  V30 1470 H -4.618 1.506 1.682 0
M  V30 1471 H -3.644 2.652 1.513 0
M  V30 1472 O -5.524 -8.58 3.163 0
M  V30 1473 H -6.092 -9.184 3.641 0
M  V30 1474 H -4.683 -8.63 3.618 0
M  V30 1475 O -12.54 11.001 -5.088 0
M  V30 1476 H -13.212 10.782 -5.733 0
M  V30 1477 H -12.272 10.157 -4.725 0
M  V30 1478 O 15.428 -12.881 4.474 0
M  V30 1479 H 16.174 -13.247 3.999 0
M  V30 1480 H 15.715 -12.852 5.386 0
M  V30 1481 O -13.514 -6.583 3.706 0
M  V30 1482 H -13.083 -5.735 3.816 0
M  V30 1483 H -14.309 -6.518 4.234 0
M  V30 1484 O -12.735 -6.216 -0.588 0
M  V30 1485 H -12.372 -5.948 -1.433 0
M  V30 1486 H -13.05 -5.402 -0.194 0
M  V30 1487 O 5.951 3.525 7.685 0
M  V30 1488 H 5.66 2.914 7.008 0
M  V30 1489 H 5.146 3.791 8.13 0
M  V30 1490 O 7.671 14.383 -5.541 0
M  V30 1491 H 8.039 13.79 -4.886 0
M  V30 1492 H 8.261 15.137 -5.541 0
M  V30 1493 O 4.722 2.835 13.169 0
M  V30 1494 H 5.448 3.394 12.892 0
M  V30 1495 H 4.381 2.465 12.355 0
M  V30 1496 O 5.708 -4.985 -3.949 0
M  V30 1497 H 5.039 -5.393 -3.399 0
M  V30 1498 H 5.478 -4.056 -3.958 0
M  V30 1499 O 5.492 11.109 15.906 0
M  V30 1500 H 4.939 11.138 16.687 0
M  V30 1501 H 6.384 11.197 16.24 0
M  V30 1502 O 8.038 -14.657 -10.987 0
M  V30 1503 H 8.279 -15.547 -11.242 0
M  V30 1504 H 8.864 -14.25 -10.724 0
M  V30 1505 O -10.88 15.849 -6.475 0
M  V30 1506 H -10.626 16.034 -7.379 0
M  V30 1507 H -11.794 15.571 -6.535 0
M  V30 1508 O -7.613 5.861 -6.244 0
M  V30 1509 H -7.321 6.179 -7.098 0
M  V30 1510 H -8.226 6.529 -5.936 0
M  V30 1511 O 6.885 -11.944 -2.325 0
M  V30 1512 H 7.783 -11.923 -1.993 0
M  V30 1513 H 6.552 -11.059 -2.174 0
M  V30 1514 O 11.94 -0.668 -10.88 0
M  V30 1515 H 12.602 0.011 -10.754 0
M  V30 1516 H 11.514 -0.749 -10.026 0
M  V30 1517 O 12.726 15.38 15.802 0
M  V30 1518 H 12.198 16.07 16.203 0
M  V30 1519 H 12.328 14.565 16.107 0
M  V30 1520 O 5.334 -5.219 0.885 0
M  V30 1521 H 5.409 -4.276 1.028 0
M  V30 1522 H 4.858 -5.299 0.058 0
M  V30 1523 O -2.436 -12.038 -8.338 0
M  V30 1524 H -2.834 -12.899 -8.468 0
M  V30 1525 H -2.965 -11.446 -8.872 0
M  V30 1526 O 2.759 -0.274 -5.083 0
M  V30 1527 H 2.535 0.34 -4.384 0
M  V30 1528 H 1.99 -0.838 -5.163 0
M  V30 1529 O 12.673 4.685 -13.604 0
M  V30 1530 H 12.059 4.906 -14.304 0
M  V30 1531 H 13.389 5.313 -13.706 0
M  V30 1532 O -10.75 7.215 4.943 0
M  V30 1533 H -11.227 6.475 4.567 0
M  V30 1534 H -9.958 7.286 4.41 0
M  V30 1535 O 10.501 -1.021 1.624 0
M  V30 1536 H 9.977 -1.047 2.424 0
M  V30 1537 H 11.293 -1.513 1.841 0
M  V30 1538 O -5.723 9.861 0.834 0
M  V30 1539 H -5.423 10.708 0.505 0
M  V30 1540 H -5.046 9.243 0.558 0
M  V30 1541 O 7.799 13.563 -2.656 0
M  V30 1542 H 6.972 13.085 -2.715 0
M  V30 1543 H 7.741 14.043 -1.829 0
M  V30 1544 O 8.067 16.478 -1.106 0
M  V30 1545 H 7.565 15.81 -0.64 0
M  V30 1546 H 7.524 17.265 -1.054 0
M  V30 1547 O 11.487 1.518 9.732 0
M  V30 1548 H 10.552 1.48 9.528 0
M  V30 1549 H 11.847 0.715 9.356 0
M  V30 1550 O 16.618 3.764 -14.896 0
M  V30 1551 H 17.023 3.069 -15.416 0
M  V30 1552 H 15.678 3.604 -14.975 0
M  V30 1553 O 12.692 -0.662 8.59 0
M  V30 1554 H 12.452 -1.067 7.757 0
M  V30 1555 H 13.57 -0.311 8.441 0
M  V30 1556 O -2.163 -11.883 6.725 0
M  V30 1557 H -2.31 -11.221 7.401 0
M  V30 1558 H -1.211 -11.982 6.69 0
M  V30 1559 O -15.405 12.856 -2.786 0
M  V30 1560 H -15.79 12.43 -2.021 0
M  V30 1561 H -14.872 12.175 -3.197 0
M  V30 1562 O -12.782 4.493 10.99 0
M  V30 1563 H -12.259 4.764 11.745 0
M  V30 1564 H -13.312 3.765 11.313 0
M  V30 1565 O 13.1 -16.858 6.992 0
M  V30 1566 H 13.456 -16.24 6.353 0
M  V30 1567 H 13.858 -17.364 7.285 0
M  V30 1568 O 7.633 -3.677 -10.718 0
M  V30 1569 H 8.448 -4.098 -10.992 0
M  V30 1570 H 7.099 -3.649 -11.512 0
M  V30 1571 O 10.627 12.438 -0.547 0
M  V30 1572 H 10.405 12.514 -1.475 0
M  V30 1573 H 11.581 12.508 -0.522 0
M  V30 1574 O 15.049 12.906 14.796 0
M  V30 1575 H 14.958 13.69 14.253 0
M  V30 1576 H 15.004 12.179 14.175 0
M  V30 1577 O -6.461 -13.324 -9.142 0
M  V30 1578 H -6.418 -13.357 -8.186 0
M  V30 1579 H -7.375 -13.117 -9.334 0
M  V30 1580 O -6.128 13.852 3.063 0
M  V30 1581 H -6.265 12.911 2.949 0
M  V30 1582 H -7.011 14.219 3.11 0
M  V30 1583 O -6.506 -5.801 -1.898 0
M  V30 1584 H -7.163 -5.408 -2.472 0
M  V30 1585 H -7.001 -6.095 -1.133 0
M  V30 1586 O 10.053 6.215 15.174 0
M  V30 1587 H 10.48 7.069 15.108 0
M  V30 1588 H 10.724 5.59 14.899 0
M  V30 1589 O -14.539 4.556 -6.042 0
M  V30 1590 H -13.908 5.275 -6.039 0
M  V30 1591 H -14.464 4.174 -6.917 0
M  V30 1592 O -15.82 14.274 12.206 0
M  V30 1593 H -14.885 14.093 12.118 0
M  V30 1594 H -15.866 15.012 12.814 0
M  V30 1595 O 8.645 15.543 5.611 0
M  V30 1596 H 7.97 15.853 5.007 0
M  V30 1597 H 8.219 14.849 6.113 0
M  V30 1598 O 3.935 -13.044 0.778 0
M  V30 1599 H 4.25 -13.739 0.199 0
M  V30 1600 H 4.663 -12.425 0.828 0
M  V30 1601 O 5.813 -10.835 1.041 0
M  V30 1602 H 5.216 -10.103 0.886 0
M  V30 1603 H 6.685 -10.443 1.017 0
M  V30 1604 O -1.645 7.368 -16.506 0
M  V30 1605 H -2.376 6.77 -16.35 0
M  V30 1606 H -0.868 6.81 -16.48 0
M  V30 1607 O 15.287 3.285 -12.117 0
M  V30 1608 H 16.168 2.913 -12.077 0
M  V30 1609 H 14.959 3.031 -12.98 0
M  V30 1610 O 7.766 -7.74 1.891 0
M  V30 1611 H 8.179 -8.505 2.292 0
M  V30 1612 H 7.296 -7.317 2.61 0
M  V30 1613 O -1.037 8.141 -2.918 0
M  V30 1614 H -0.565 7.552 -2.329 0
M  V30 1615 H -1.047 8.981 -2.458 0
M  V30 1616 O -9.177 14.759 12.985 0
M  V30 1617 H -9.594 15.217 12.255 0
M  V30 1618 H -8.421 15.302 13.208 0
M  V30 1619 O -14.421 10.187 -8.519 0
M  V30 1620 H -15.252 10.189 -8.993 0
M  V30 1621 H -14.018 11.028 -8.737 0
M  V30 1622 O 15.971 16.83 0.3 0
M  V30 1623 H 16.212 15.963 -0.026 0
M  V30 1624 H 15.015 16.845 0.257 0
M  V30 1625 O -6.88 -9.044 -14.937 0
M  V30 1626 H -6.644 -8.302 -14.381 0
M  V30 1627 H -7.45 -8.67 -15.609 0
M  V30 1628 O -10.513 12.437 12.432 0
M  V30 1629 H -10.4 12.12 13.329 0
M  V30 1630 H -10.148 13.321 12.442 0
M  V30 1631 O -11.598 -11.365 -16.351 0
M  V30 1632 H -11.851 -10.444 -16.404 0
M  V30 1633 H -10.664 -11.37 -16.562 0
M  V30 1634 O -15.432 -3.691 -1.123 0
M  V30 1635 H -16.075 -2.999 -1.279 0
M  V30 1636 H -14.63 -3.372 -1.537 0
M  V30 1637 O -0.031 -0.816 2.819 0
M  V30 1638 H -0.149 -1.727 3.089 0
M  V30 1639 H -0.895 -0.42 2.928 0
M  V30 1640 O 11.329 -7.923 -0.997 0
M  V30 1641 H 10.712 -7.64 -1.671 0
M  V30 1642 H 11.513 -8.838 -1.21 0
M  V30 1643 O 0.148 -13.249 13.326 0
M  V30 1644 H -0.177 -14.049 13.738 0
M  V30 1645 H 0.805 -12.914 13.937 0
M  V30 1646 O -3.257 -16.837 -13.704 0
M  V30 1647 H -2.454 -17.307 -13.928 0
M  V30 1648 H -3.714 -16.73 -14.539 0
M  V30 1649 O -2.293 12.157 0.331 0
M  V30 1650 H -2.789 11.378 0.08 0
M  V30 1651 H -2.832 12.89 0.036 0
M  V30 1652 O 11.867 -12.064 1.467 0
M  V30 1653 H 11.495 -11.662 0.682 0
M  V30 1654 H 11.618 -12.986 1.405 0
M  V30 1655 O 14.503 -7.948 -10.447 0
M  V30 1656 H 14.187 -8.602 -11.07 0
M  V30 1657 H 15.384 -8.242 -10.216 0
M  V30 1658 O -10.302 -14.009 15.116 0
M  V30 1659 H -10.143 -14.044 16.059 0
M  V30 1660 H -9.75 -13.291 14.806 0
M  V30 1661 O 10.108 14.407 13.53 0
M  V30 1662 H 10.77 13.736 13.364 0
M  V30 1663 H 10.514 15.223 13.238 0
M  V30 1664 O -11.649 10.774 -14.172 0
M  V30 1665 H -10.823 11.236 -14.312 0
M  V30 1666 H -11.726 10.188 -14.925 0
M  V30 1667 O -4.168 -8.848 -4.096 0
M  V30 1668 H -3.991 -9.163 -4.983 0
M  V30 1669 H -4.428 -7.934 -4.214 0
M  V30 1670 O -15.07 9.425 9.748 0
M  V30 1671 H -15.646 8.661 9.773 0
M  V30 1672 H -14.625 9.418 10.596 0
M  V30 1673 O 14.128 13.327 -0.749 0
M  V30 1674 H 13.763 12.58 -0.273 0
M  V30 1675 H 13.907 14.086 -0.21 0
M  V30 1676 O 15.829 5.132 15.697 0
M  V30 1677 H 15.657 4.559 14.95 0
M  V30 1678 H 15.169 4.886 16.345 0
M  V30 1679 O -1.941 -5.664 12.086 0
M  V30 1680 H -2.827 -5.302 12.103 0
M  V30 1681 H -1.601 -5.426 11.223 0
M  V30 1682 O 12.198 -12.939 -10.978 0
M  V30 1683 H 11.395 -12.572 -10.608 0
M  V30 1684 H 12.135 -12.758 -11.916 0
M  V30 1685 O -14.659 16.515 9.196 0
M  V30 1686 H -14.993 15.665 9.481 0
M  V30 1687 H -13.875 16.307 8.688 0
M  V30 1688 O -12.553 12.911 15.82 0
M  V30 1689 H -11.81 12.365 15.564 0
M  V30 1690 H -12.41 13.74 15.363 0
M  V30 1691 O -2.276 9.85 -15.21 0
M  V30 1692 H -1.583 10.436 -14.909 0
M  V30 1693 H -1.846 9.275 -15.843 0
M  V30 1694 O -4.509 -15.592 -16.527 0
M  V30 1695 H -5.4 -15.253 -16.615 0
M  V30 1696 H -4.619 -16.541 -16.464 0
M  V30 1697 O -14.482 0.405 7.306 0
M  V30 1698 H -14.049 0.198 8.133 0
M  V30 1699 H -14.818 1.294 7.427 0
M  V30 1700 O 0.987 -10.604 -10.784 0
M  V30 1701 H 1.074 -11.389 -10.243 0
M  V30 1702 H 1.453 -9.924 -10.299 0
M  V30 1703 O -13.27 -11.062 13.37 0
M  V30 1704 H -12.467 -11.571 13.259 0
M  V30 1705 H -13.865 -11.405 12.703 0
M  V30 1706 O 16.955 -9.691 12.8 0
M  V30 1707 H 16.464 -9.167 12.167 0
M  V30 1708 H 16.467 -9.597 13.619 0
M  V30 1709 O -3.927 -5.768 -16.76 0
M  V30 1710 H -3.587 -5.859 -15.87 0
M  V30 1711 H -4.577 -6.466 -16.842 0
M  V30 1712 O 7.703 6.602 -1.746 0
M  V30 1713 H 6.979 6.907 -1.2 0
M  V30 1714 H 7.744 5.659 -1.587 0
M  V30 1715 O 7.207 13.444 -10.784 0
M  V30 1716 H 8.024 13.709 -11.207 0
M  V30 1717 H 7.387 12.568 -10.442 0
M  V30 1718 O 8.137 -9.915 -14.291 0
M  V30 1719 H 7.632 -9.876 -13.479 0
M  V30 1720 H 7.769 -9.221 -14.837 0
M  V30 1721 O 0.717 2.186 3.626 0
M  V30 1722 H 0.4 1.4 4.07 0
M  V30 1723 H 0.547 2.897 4.244 0
M  V30 1724 O -16.757 -4.655 -8.793 0
M  V30 1725 H -17.085 -4.989 -9.629 0
M  V30 1726 H -16.792 -5.409 -8.204 0
M  V30 1727 O 8.235 -13.393 -4.981 0
M  V30 1728 H 9.191 -13.39 -4.951 0
M  V30 1729 H 7.97 -12.835 -4.25 0
M  V30 1730 O -8.334 -9.923 0.759 0
M  V30 1731 H -7.806 -10.104 1.537 0
M  V30 1732 H -8.239 -10.707 0.218 0
M  V30 1733 O -1.089 -16.894 -9.633 0
M  V30 1734 H -0.401 -17.475 -9.956 0
M  V30 1735 H -1.212 -16.255 -10.334 0
M  V30 1736 O 6.359 14.147 13.246 0
M  V30 1737 H 6.605 14.711 13.979 0
M  V30 1738 H 6.635 14.63 12.468 0
M  V30 1739 O 13.384 6.412 9.005 0
M  V30 1740 H 12.903 6.33 9.829 0
M  V30 1741 H 12.723 6.682 8.367 0
M  V30 1742 O 0.113 -16.435 4.071 0
M  V30 1743 H -0.627 -16.135 3.543 0
M  V30 1744 H -0.287 -16.79 4.865 0
M  V30 1745 O 0.834 4.392 -4.708 0
M  V30 1746 H 0.355 4.485 -3.885 0
M  V30 1747 H 0.547 3.549 -5.058 0
M  V30 1748 O -9.367 16.242 7.784 0
M  V30 1749 H -9.29 15.355 7.432 0
M  V30 1750 H -10.309 16.404 7.823 0
M  V30 1751 O 3.178 0.361 -11.513 0
M  V30 1752 H 3.333 -0.377 -10.925 0
M  V30 1753 H 3.892 0.971 -11.327 0
M  V30 1754 O 4.771 4.762 -13.616 0
M  V30 1755 H 4.937 3.854 -13.363 0
M  V30 1756 H 4.354 5.153 -12.849 0
M  V30 1757 O -15.634 6.6 -3.705 0
M  V30 1758 H -14.786 6.308 -4.04 0
M  V30 1759 H -15.875 7.334 -4.27 0
M  V30 1760 O -13.205 8.621 -13.123 0
M  V30 1761 H -12.715 7.867 -13.451 0
M  V30 1762 H -12.638 9.371 -13.301 0
M  V30 1763 O 15.208 -15.393 16.089 0
M  V30 1764 H 16.161 -15.437 16.008 0
M  V30 1765 H 14.88 -15.892 15.341 0
M  V30 1766 O -3.478 10.543 -11.087 0
M  V30 1767 H -3.967 10.318 -10.296 0
M  V30 1768 H -2.734 9.941 -11.09 0
M  V30 1769 O 12.979 2.527 7.719 0
M  V30 1770 H 12.365 2.718 8.428 0
M  V30 1771 H 13.668 2.006 8.132 0
M  V30 1772 O 2.894 -2.474 8.335 0
M  V30 1773 H 2.528 -3.005 7.628 0
M  V30 1774 H 2.674 -2.952 9.134 0
M  V30 1775 O 4.001 -7.581 13.618 0
M  V30 1776 H 4.354 -7.573 12.728 0
M  V30 1777 H 3.613 -8.451 13.714 0
M  V30 1778 O 15.16 -2.711 5.434 0
M  V30 1779 H 14.916 -3.618 5.619 0
M  V30 1780 H 16.024 -2.609 5.832 0
M  V30 1781 O 4.634 -17.02 0.266 0
M  V30 1782 H 3.854 -17.444 0.623 0
M  V30 1783 H 5.017 -16.557 1.011 0
M  V30 1784 O 10.955 8.878 -15.114 0
M  V30 1785 H 11.237 8.814 -14.201 0
M  V30 1786 H 11.137 8.013 -15.482 0
M  V30 1787 O -6.448 10.515 -11.944 0
M  V30 1788 H -6.243 10.504 -11.009 0
M  V30 1789 H -6.662 9.606 -12.153 0
M  V30 1790 O -14.398 5.208 14.474 0
M  V30 1791 H -14.725 4.314 14.377 0
M  V30 1792 H -14.618 5.636 13.647 0
M  V30 1793 O -1.366 -13.356 0.938 0
M  V30 1794 H -1.203 -12.71 1.625 0
M  V30 1795 H -1.699 -14.123 1.403 0
M  V30 1796 O 9.025 -10.09 7.132 0
M  V30 1797 H 9.432 -10.408 6.326 0
M  V30 1798 H 9.741 -10.063 7.767 0
M  V30 1799 O 0.399 6.2 -8.928 0
M  V30 1800 H 1.349 6.276 -9.008 0
M  V30 1801 H 0.148 6.923 -8.354 0
M  V30 1802 O -14.673 -14.975 8.445 0
M  V30 1803 H -14.656 -15.167 7.507 0
M  V30 1804 H -14.867 -15.816 8.858 0
M  V30 1805 O 8.03 -14.057 -16.019 0
M  V30 1806 H 8.197 -13.261 -15.514 0
M  V30 1807 H 8.18 -13.8 -16.929 0
M  V30 1808 O -0.339 -15.444 7.387 0
M  V30 1809 H -0.653 -16.168 6.846 0
M  V30 1810 H -1.012 -15.338 8.06 0
M  V30 1811 O -0.509 -10.462 -15.464 0
M  V30 1812 H -0.375 -11.138 -14.801 0
M  V30 1813 H -1.374 -10.101 -15.268 0
M  V30 1814 O 14.734 -8.95 -7.234 0
M  V30 1815 H 13.822 -8.798 -7.481 0
M  V30 1816 H 15.115 -8.074 -7.173 0
M  V30 1817 O 2.62 -5.832 6.851 0
M  V30 1818 H 3.572 -5.799 6.937 0
M  V30 1819 H 2.412 -5.147 6.215 0
M  V30 1820 O -1.519 -4.619 -4.879 0
M  V30 1821 H -2.218 -5.139 -5.274 0
M  V30 1822 H -1.557 -4.835 -3.947 0
M  V30 1823 O 12.946 10.935 0.637 0
M  V30 1824 H 13.402 10.403 1.289 0
M  V30 1825 H 12.595 10.301 0.012 0
M  V30 1826 O 15.064 -11.347 -9.102 0
M  V30 1827 H 14.92 -10.478 -8.727 0
M  V30 1828 H 14.398 -11.899 -8.691 0
M  V30 1829 O 11.739 8.014 -12.482 0
M  V30 1830 H 10.95 8.539 -12.348 0
M  V30 1831 H 11.683 7.325 -11.819 0
M  V30 1832 O 0.842 -7.064 8.663 0
M  V30 1833 H 1.456 -6.575 8.115 0
M  V30 1834 H 0.743 -7.907 8.221 0
M  V30 1835 O 0.289 13.24 -10.86 0
M  V30 1836 H 0.696 14.084 -10.665 0
M  V30 1837 H -0.651 13.422 -10.863 0
M  V30 1838 O 7.518 -2.724 12.055 0
M  V30 1839 H 6.98 -2.61 11.272 0
M  V30 1840 H 7.448 -3.656 12.261 0
M  V30 1841 O 11.788 13.454 -5.022 0
M  V30 1842 H 11.386 12.732 -4.538 0
M  V30 1843 H 12.344 13.026 -5.673 0
M  V30 1844 O 5.948 10.309 -0.479 0
M  V30 1845 H 5.727 11.053 -1.038 0
M  V30 1846 H 5.131 9.817 -0.399 0
M  V30 1847 O -4.514 -3.197 -10.754 0
M  V30 1848 H -5.141 -3.613 -11.345 0
M  V30 1849 H -5.04 -2.914 -10.006 0
M  V30 1850 O 1.013 6.073 -16.318 0
M  V30 1851 H 0.863 5.691 -15.454 0
M  V30 1852 H 1.145 5.32 -16.894 0
M  V30 1853 O 2.014 -2.275 15.153 0
M  V30 1854 H 1.379 -2.79 14.656 0
M  V30 1855 H 2.842 -2.743 15.044 0
M  V30 1856 O -10.406 8.954 -0.968 0
M  V30 1857 H -9.913 9.314 -0.231 0
M  V30 1858 H -9.965 8.13 -1.172 0
M  V30 1859 O 10.066 10.211 -12.158 0
M  V30 1860 H 10.566 11.016 -12.021 0
M  V30 1861 H 9.181 10.425 -11.863 0
M  V30 1862 O -6.613 -10.739 -7.066 0
M  V30 1863 H -6.698 -10.213 -6.271 0
M  V30 1864 H -7.283 -10.393 -7.656 0
M  V30 1865 O -6.801 2.498 -1.839 0
M  V30 1866 H -6.061 3.045 -2.103 0
M  V30 1867 H -7.034 2.813 -0.966 0
M  V30 1868 O 2.717 11.08 8.891 0
M  V30 1869 H 2.307 11.775 9.405 0
M  V30 1870 H 3.656 11.246 8.97 0
M  V30 1871 O -2.896 15.418 11.726 0
M  V30 1872 H -2.071 14.998 11.97 0
M  V30 1873 H -3.264 14.849 11.051 0
M  V30 1874 O -16.688 -6.775 -7.087 0
M  V30 1875 H -15.852 -7.121 -7.399 0
M  V30 1876 H -16.83 -7.211 -6.247 0
M  V30 1877 O -3.231 7.646 13.086 0
M  V30 1878 H -3.561 8.292 12.462 0
M  V30 1879 H -3.527 7.963 13.939 0
M  V30 1880 O 5.214 -11.066 -5.475 0
M  V30 1881 H 5.103 -11.539 -6.299 0
M  V30 1882 H 6.157 -10.912 -5.411 0
M  V30 1883 O -12.437 -2.412 -11.638 0
M  V30 1884 H -12.048 -2.916 -10.923 0
M  V30 1885 H -11.876 -1.641 -11.722 0
M  V30 1886 O 10.054 8.495 1.239 0
M  V30 1887 H 10.616 8.484 0.465 0
M  V30 1888 H 9.484 9.253 1.112 0
M  V30 1889 O 11.306 -9.259 -13.737 0
M  V30 1890 H 10.888 -8.995 -12.917 0
M  V30 1891 H 11.081 -10.184 -13.834 0
M  V30 1892 O 0.706 -2.895 -9.71 0
M  V30 1893 H -0.146 -2.472 -9.605 0
M  V30 1894 H 0.499 -3.792 -9.973 0
M  V30 1895 O -11.743 14.285 3.498 0
M  V30 1896 H -11.339 13.988 2.683 0
M  V30 1897 H -12.674 14.365 3.288 0
M  V30 1898 O -0.857 13.336 11.955 0
M  V30 1899 H 0.086 13.24 11.821 0
M  V30 1900 H -1.122 12.524 12.387 0
M  V30 1901 O 9.681 16.698 -6.329 0
M  V30 1902 H 9.447 17.569 -6.649 0
M  V30 1903 H 10.516 16.824 -5.879 0
M  V30 1904 O -4.98 11.077 3.616 0
M  V30 1905 H -4.419 10.37 3.936 0
M  V30 1906 H -4.382 11.809 3.467 0
M  V30 1907 O -3.914 1.246 14.092 0
M  V30 1908 H -4.76 1.686 14 0
M  V30 1909 H -3.929 0.556 13.43 0
M  V30 1910 O -8.625 -10.658 15.774 0
M  V30 1911 H -8.323 -10.618 14.867 0
M  V30 1912 H -7.879 -11.012 16.26 0
M  V30 1913 O -8.133 -13.395 10.768 0
M  V30 1914 H -7.254 -13.707 10.553 0
M  V30 1915 H -8.703 -13.827 10.133 0
M  V30 1916 O 10.245 0.705 -14.715 0
M  V30 1917 H 10.505 1.583 -14.434 0
M  V30 1918 H 9.804 0.33 -13.953 0
M  V30 1919 O 12.522 11.879 -7.1 0
M  V30 1920 H 12.719 11.449 -7.932 0
M  V30 1921 H 11.694 11.488 -6.819 0
M  V30 1922 O 2.096 -16.687 2.379 0
M  V30 1923 H 1.741 -16.198 1.637 0
M  V30 1924 H 1.351 -16.803 2.969 0
M  V30 1925 O 15.806 -16.302 4.597 0
M  V30 1926 H 14.926 -16.341 4.222 0
M  V30 1927 H 16.122 -17.205 4.563 0
M  V30 1928 O -10.236 -10.332 -11.373 0
M  V30 1929 H -9.809 -10.562 -12.199 0
M  V30 1930 H -9.577 -9.83 -10.894 0
M  V30 1931 O -16.969 -12.736 6.903 0
M  V30 1932 H -16.297 -12.435 7.515 0
M  V30 1933 H -17.251 -13.581 7.252 0
M  V30 1934 O 15.198 15.696 7.965 0
M  V30 1935 H 14.559 15.087 8.333 0
M  V30 1936 H 15.846 15.136 7.538 0
M  V30 1937 O -15.264 2.683 8.498 0
M  V30 1938 H -15.693 3.274 9.117 0
M  V30 1939 H -14.522 3.186 8.162 0
M  V30 1940 O 6.075 -15.054 6.781 0
M  V30 1941 H 5.448 -15.036 7.504 0
M  V30 1942 H 5.849 -15.843 6.288 0
M  V30 1943 O 4.42 2.604 16.429 0
M  V30 1944 H 5.313 2.934 16.531 0
M  V30 1945 H 4.47 1.688 16.704 0
M  V30 1946 O -11.351 0.437 -7.37 0
M  V30 1947 H -10.472 0.081 -7.501 0
M  V30 1948 H -11.206 1.293 -6.967 0
M  V30 1949 O 13.162 -6.032 -0.174 0
M  V30 1950 H 12.683 -5.738 0.601 0
M  V30 1951 H 12.569 -6.65 -0.602 0
M  V30 1952 O -13.652 -1.357 -16.513 0
M  V30 1953 H -13.216 -2.086 -16.072 0
M  V30 1954 H -14.504 -1.708 -16.771 0
M  V30 1955 O 4.689 -3.1 14.383 0
M  V30 1956 H 5.519 -3.031 14.856 0
M  V30 1957 H 4.613 -2.273 13.908 0
M  V30 1958 O 7.132 2.287 -8.24 0
M  V30 1959 H 7.386 2.948 -8.885 0
M  V30 1960 H 7.362 2.675 -7.396 0
M  V30 1961 O 3.33 5.267 -3.76 0
M  V30 1962 H 3.011 5.328 -2.86 0
M  V30 1963 H 2.581 4.939 -4.258 0
M  V30 1964 O 12.147 6.297 -16.032 0
M  V30 1965 H 12.961 6.718 -15.754 0
M  V30 1966 H 12.339 5.96 -16.907 0
M  V30 1967 O -3.614 -9.737 -6.533 0
M  V30 1968 H -3.3 -9.759 -7.437 0
M  V30 1969 H -3.894 -10.635 -6.354 0
M  V30 1970 O -11.24 -0.694 -14.129 0
M  V30 1971 H -11.455 -1.039 -14.996 0
M  V30 1972 H -11.373 -1.434 -13.537 0
M  V30 1973 O 13.617 9.283 2.724 0
M  V30 1974 H 13.361 9.854 3.449 0
M  V30 1975 H 13.556 8.398 3.084 0
M  V30 1976 O 10.193 0.937 -8.771 0
M  V30 1977 H 10.035 1.137 -7.849 0
M  V30 1978 H 9.512 0.304 -9 0
M  V30 1979 O -14.625 10.326 2.246 0
M  V30 1980 H -13.91 10.304 2.881 0
M  V30 1981 H -14.224 10.045 1.423 0
M  V30 1982 O 7.87 -13.923 9.931 0
M  V30 1983 H 8.789 -13.666 9.865 0
M  V30 1984 H 7.802 -14.715 9.397 0
M  V30 1985 O -13.113 -1.026 -4.113 0
M  V30 1986 H -13.886 -1.565 -4.278 0
M  V30 1987 H -13.124 -0.372 -4.812 0
M  V30 1988 O -13.063 -9.863 -13.327 0
M  V30 1989 H -13.975 -10.147 -13.388 0
M  V30 1990 H -12.848 -9.553 -14.207 0
M  V30 1991 O -2.19 7.16 -12.82 0
M  V30 1992 H -2.808 7.71 -13.301 0
M  V30 1993 H -1.557 7.776 -12.451 0
M  V30 1994 O 15.224 5.502 -6.949 0
M  V30 1995 H 15.219 4.976 -7.749 0
M  V30 1996 H 14.455 5.206 -6.463 0
M  V30 1997 O 9.633 -6.537 -3.479 0
M  V30 1998 H 9.682 -6.173 -4.363 0
M  V30 1999 H 8.861 -7.103 -3.495 0
M  V30 2000 O -5.856 14.354 -7.735 0
M  V30 2001 H -5.8 14.638 -6.822 0
M  V30 2002 H -6.435 13.592 -7.714 0
M  V30 2003 O 5.506 10.287 9.117 0
M  V30 2004 H 6.183 9.894 8.566 0
M  V30 2005 H 5.972 10.936 9.644 0
M  V30 2006 O 2.096 -14.197 5.867 0
M  V30 2007 H 1.179 -14.337 5.629 0
M  V30 2008 H 2.064 -13.889 6.773 0
M  V30 2009 O 6.432 13.066 9.614 0
M  V30 2010 H 6.37 12.559 10.424 0
M  V30 2011 H 6.97 13.824 9.846 0
M  V30 2012 O 16.415 12.199 -15.199 0
M  V30 2013 H 16.021 12.788 -15.842 0
M  V30 2014 H 16.558 12.747 -14.428 0
M  V30 2015 O 2.735 14.976 8.92 0
M  V30 2016 H 1.844 15.185 8.64 0
M  V30 2017 H 2.992 15.715 9.472 0
M  V30 2018 O -9.454 8.329 -10.575 0
M  V30 2019 H -9.558 7.436 -10.904 0
M  V30 2020 H -9.127 8.219 -9.682 0
M  V30 2021 O 1.431 16.673 14.361 0
M  V30 2022 H 2.275 16.929 14.734 0
M  V30 2023 H 1.19 15.878 14.837 0
M  V30 2024 O -15.945 -2.213 -7.564 0
M  V30 2025 H -16.214 -3.083 -7.86 0
M  V30 2026 H -15.915 -1.686 -8.362 0
M  V30 2027 O 7.504 6.021 15.721 0
M  V30 2028 H 7.142 6.817 15.332 0
M  V30 2029 H 8.436 6.051 15.506 0
M  V30 2030 O -16.682 11.548 8.023 0
M  V30 2031 H -17.593 11.317 7.845 0
M  V30 2032 H -16.378 10.873 8.631 0
M  V30 2033 O -14.876 14.314 -11.818 0
M  V30 2034 H -14.691 13.662 -12.494 0
M  V30 2035 H -14.415 13.994 -11.043 0
M  V30 2036 O 10.231 3.614 5.082 0
M  V30 2037 H 10.186 3.167 4.237 0
M  V30 2038 H 9.848 4.476 4.918 0
M  V30 2039 O -4.539 -9.079 7.098 0
M  V30 2040 H -5.29 -9.041 6.506 0
M  V30 2041 H -4.71 -9.84 7.654 0
M  V30 2042 O -0.229 -11.85 2.975 0
M  V30 2043 H 0.526 -11.59 2.448 0
M  V30 2044 H 0.036 -11.676 3.878 0
M  V30 2045 O -15.686 -11.336 15.149 0
M  V30 2046 H -15.509 -10.801 14.375 0
M  V30 2047 H -14.864 -11.795 15.316 0
M  V30 2048 O 2.328 8.046 -10.558 0
M  V30 2049 H 3.043 7.46 -10.803 0
M  V30 2050 H 2.382 8.105 -9.604 0
M  V30 2051 O 10.356 5.664 -10.913 0
M  V30 2052 H 10.062 5.925 -11.786 0
M  V30 2053 H 9.924 4.825 -10.755 0
M  V30 2054 O 0.764 -8.36 14.456 0
M  V30 2055 H -0.165 -8.132 14.414 0
M  V30 2056 H 1.162 -7.881 13.729 0
M  V30 2057 O 13.942 -16.494 -15.022 0
M  V30 2058 H 14.291 -16.018 -15.775 0
M  V30 2059 H 13.051 -16.731 -15.281 0
M  V30 2060 O 0.556 1.291 -7.963 0
M  V30 2061 H 1.352 0.876 -8.294 0
M  V30 2062 H 0.331 1.942 -8.628 0
M  V30 2063 O 12.305 -6.92 -5.028 0
M  V30 2064 H 11.928 -6.776 -4.161 0
M  V30 2065 H 11.874 -6.275 -5.588 0
M  V30 2066 O 8.339 10.588 1.178 0
M  V30 2067 H 8.867 11.235 0.711 0
M  V30 2068 H 7.538 10.513 0.66 0
M  V30 2069 O 0.974 -2.377 -4.706 0
M  V30 2070 H 1.17 -3.18 -5.189 0
M  V30 2071 H 0.025 -2.277 -4.781 0
M  V30 2072 O 4.656 9.023 2.861 0
M  V30 2073 H 4.661 9.924 3.184 0
M  V30 2074 H 4.577 8.486 3.649 0
M  V30 2075 O -14.385 -7.832 -7.894 0
M  V30 2076 H -13.669 -8.412 -8.151 0
M  V30 2077 H -14.081 -6.956 -8.129 0
M  V30 2078 O 3.13 15.25 -4.577 0
M  V30 2079 H 2.868 15.701 -5.379 0
M  V30 2080 H 3.994 14.89 -4.776 0
M  V30 2081 O 1.739 3.417 12.021 0
M  V30 2082 H 0.889 3.536 11.598 0
M  V30 2083 H 2.276 4.136 11.687 0
M  V30 2084 O -6.856 -15.61 -14.25 0
M  V30 2085 H -6.278 -14.86 -14.389 0
M  V30 2086 H -6.525 -16.022 -13.451 0
M  V30 2087 O 5.07 7.045 -5.522 0
M  V30 2088 H 4.956 7.89 -5.088 0
M  V30 2089 H 4.438 6.468 -5.092 0
M  V30 2090 O -3.333 1.842 -6.572 0
M  V30 2091 H -2.713 1.159 -6.316 0
M  V30 2092 H -3.148 2.568 -5.976 0
M  V30 2093 O 3.792 5.573 8.013 0
M  V30 2094 H 3.79 6.207 8.731 0
M  V30 2095 H 4.426 5.922 7.387 0
M  V30 2096 O -8.134 16.252 -0.16 0
M  V30 2097 H -7.625 16.017 -0.935 0
M  V30 2098 H -8.569 15.439 0.098 0
M  V30 2099 O -13.705 10.61 14.819 0
M  V30 2100 H -14.577 10.749 15.188 0
M  V30 2101 H -13.224 11.409 15.034 0
M  V30 2102 O -1.028 -10.938 -12.532 0
M  V30 2103 H -0.959 -11.863 -12.77 0
M  V30 2104 H -0.353 -10.811 -11.865 0
M  V30 2105 O 11.353 9.145 -7.795 0
M  V30 2106 H 12.153 8.621 -7.85 0
M  V30 2107 H 10.955 8.888 -6.963 0
M  V30 2108 O 0.274 -15.755 11.06 0
M  V30 2109 H -0.467 -15.517 10.503 0
M  V30 2110 H 0.169 -15.213 11.842 0
M  V30 2111 O 2.105 -12.375 -6.902 0
M  V30 2112 H 2.271 -11.752 -6.194 0
M  V30 2113 H 2.744 -13.074 -6.762 0
M  V30 2114 O -4.148 0.118 -1.43 0
M  V30 2115 H -4.293 1.036 -1.204 0
M  V30 2116 H -4.348 -0.362 -0.626 0
M  V30 2117 O -11.784 12.387 1.273 0
M  V30 2118 H -12.513 12.988 1.117 0
M  V30 2119 H -12.032 11.585 0.814 0
M  V30 2120 O -8.105 9.389 6.139 0
M  V30 2121 H -7.916 9.271 5.208 0
M  V30 2122 H -9.015 9.685 6.163 0
M  V30 2123 O 4.906 -5.927 3.649 0
M  V30 2124 H 5.396 -5.176 3.313 0
M  V30 2125 H 5.249 -6.675 3.161 0
M  V30 2126 O -2.413 -6.878 7.075 0
M  V30 2127 H -3.169 -7.403 7.335 0
M  V30 2128 H -1.735 -7.52 6.865 0
M  V30 2129 O 15.01 -8.967 -0.561 0
M  V30 2130 H 14.909 -8.521 -1.402 0
M  V30 2131 H 14.773 -8.307 0.091 0
M  V30 2132 O -3.907 -5.35 -0.066 0
M  V30 2133 H -4.281 -6.204 0.151 0
M  V30 2134 H -4.307 -5.119 -0.904 0
M  V30 2135 O -7.989 -16.154 5.707 0
M  V30 2136 H -8.215 -16.854 6.32 0
M  V30 2137 H -8.624 -16.242 4.997 0
M  V30 2138 O -5.581 -11.105 -16.333 0
M  V30 2139 H -4.964 -10.642 -16.9 0
M  V30 2140 H -5.82 -10.464 -15.664 0
M  V30 2141 O -13.025 -10.679 -6.865 0
M  V30 2142 H -12.449 -10.121 -6.343 0
M  V30 2143 H -12.691 -10.597 -7.759 0
M  V30 2144 O 3.858 6.048 -16.137 0
M  V30 2145 H 2.992 6.423 -15.976 0
M  V30 2146 H 3.983 5.419 -15.426 0
M  V30 2147 O -16.854 7.296 -8.452 0
M  V30 2148 H -16.832 8.13 -7.982 0
M  V30 2149 H -17.083 6.65 -7.784 0
M  V30 2150 O 16.232 -15.242 7.528 0
M  V30 2151 H 16.039 -15.436 6.611 0
M  V30 2152 H 15.442 -15.502 8 0
M  V30 2153 O 14.89 -9.455 14.888 0
M  V30 2154 H 14.92 -8.676 15.443 0
M  V30 2155 H 13.975 -9.519 14.615 0
M  V30 2156 O -9.334 -8.041 -16.781 0
M  V30 2157 H -9.337 -8.993 -16.875 0
M  V30 2158 H -9.749 -7.882 -15.934 0
M  V30 2159 O 5.174 13.083 -12.787 0
M  V30 2160 H 4.721 12.318 -12.434 0
M  V30 2161 H 5.972 13.153 -12.263 0
M  V30 2162 O -15.38 8.423 -11.641 0
M  V30 2163 H -14.898 8.241 -10.834 0
M  V30 2164 H -14.709 8.437 -12.323 0
M  V30 2165 O -3.778 15.392 1.578 0
M  V30 2166 H -4.299 14.797 2.118 0
M  V30 2167 H -4.348 16.148 1.436 0
M  V30 2168 O -5.593 -14.006 -2.377 0
M  V30 2169 H -5.372 -13.988 -1.446 0
M  V30 2170 H -5.829 -13.103 -2.585 0
M  V30 2171 O -0.21 15.727 -1.189 0
M  V30 2172 H -0.846 16.371 -0.877 0
M  V30 2173 H 0.564 16.244 -1.413 0
M  V30 2174 O 14.407 -15.659 -8.508 0
M  V30 2175 H 14.238 -16.512 -8.108 0
M  V30 2176 H 15.329 -15.692 -8.762 0
M  V30 2177 O 9.778 -16.345 13.426 0
M  V30 2178 H 10.069 -16.363 12.514 0
M  V30 2179 H 10.362 -15.718 13.852 0
M  V30 2180 O -10.975 3.262 13.475 0
M  V30 2181 H -11.185 2.359 13.716 0
M  V30 2182 H -10.498 3.184 12.649 0
M  V30 2183 O -10.025 14.397 -15.229 0
M  V30 2184 H -10.876 14.605 -14.844 0
M  V30 2185 H -9.938 15.006 -15.962 0
M  V30 2186 O 5.198 6.846 10.398 0
M  V30 2187 H 5.858 7.049 9.736 0
M  V30 2188 H 5.59 7.132 11.223 0
M  V30 2189 O 9.2 14.237 10.729 0
M  V30 2190 H 9.614 13.867 11.509 0
M  V30 2191 H 8.523 14.822 11.071 0
M  V30 2192 O -7.474 9.648 12.152 0
M  V30 2193 H -8.12 9.046 12.522 0
M  V30 2194 H -7.995 10.331 11.731 0
M  V30 2195 O -15.303 17.288 -15.612 0
M  V30 2196 H -14.407 17.374 -15.937 0
M  V30 2197 H -15.49 16.351 -15.67 0
M  V30 2198 O 13.722 8.208 11.831 0
M  V30 2199 H 13.734 8.716 11.019 0
M  V30 2200 H 14.539 8.44 12.271 0
M  V30 2201 O -5.963 0.776 -6.921 0
M  V30 2202 H -6.213 0.607 -6.013 0
M  V30 2203 H -5.08 1.142 -6.863 0
M  V30 2204 O 1.623 -1.05 10.54 0
M  V30 2205 H 1.772 -1.995 10.564 0
M  V30 2206 H 1.468 -0.855 9.615 0
M  V30 2207 O 12.479 1.659 4.841 0
M  V30 2208 H 12.649 1.897 5.752 0
M  V30 2209 H 13.243 1.144 4.581 0
M  V30 2210 O -3.482 -9.411 15.438 0
M  V30 2211 H -3.17 -8.572 15.1 0
M  V30 2212 H -3.231 -9.406 16.362 0
M  V30 2213 O -10.525 5.917 -11.265 0
M  V30 2214 H -11.479 5.978 -11.205 0
M  V30 2215 H -10.368 5.128 -11.784 0
M  V30 2216 O -15.6 11.8 -0.399 0
M  V30 2217 H -15.66 12.276 0.429 0
M  V30 2218 H -15.559 10.878 -0.143 0
M  V30 2219 O 2.43 4.04 6.145 0
M  V30 2220 H 2.455 4.559 5.341 0
M  V30 2221 H 2.846 4.597 6.803 0
M  V30 2222 O 6.679 5.175 3.926 0
M  V30 2223 H 7.225 5.682 3.325 0
M  V30 2224 H 7.18 4.376 4.09 0
M  V30 2225 O -8.838 -1.004 16.385 0
M  V30 2226 H -9.127 -1.264 15.51 0
M  V30 2227 H -8.648 -0.069 16.306 0
M  V30 2228 O 17.12 15.085 -6.75 0
M  V30 2229 H 16.914 15.816 -7.332 0
M  V30 2230 H 16.945 15.42 -5.871 0
M  V30 2231 O -14.8 -12.093 8.504 0
M  V30 2232 H -13.886 -11.841 8.368 0
M  V30 2233 H -14.771 -13.041 8.63 0
M  V30 2234 O -0.671 2.027 -4.675 0
M  V30 2235 H -1.146 1.453 -4.073 0
M  V30 2236 H -0.48 1.474 -5.433 0
M  V30 2237 O -5.54 -7.758 14.612 0
M  V30 2238 H -4.791 -8.309 14.838 0
M  V30 2239 H -6.111 -8.33 14.098 0
M  V30 2240 O -1.284 1.791 10.922 0
M  V30 2241 H -0.999 1.232 11.644 0
M  V30 2242 H -0.978 2.666 11.161 0
M  V30 2243 O -8.645 -8.868 9.089 0
M  V30 2244 H -7.756 -8.721 8.768 0
M  V30 2245 H -9.166 -8.18 8.676 0
M  V30 2246 O 10.676 11.694 -15.198 0
M  V30 2247 H 10.897 10.765 -15.138 0
M  V30 2248 H 11.418 12.088 -15.657 0
M  V30 2249 O -8.24 0.412 -12.603 0
M  V30 2250 H -8.092 1.268 -13.006 0
M  V30 2251 H -7.434 0.233 -12.119 0
M  V30 2252 O 10.121 -3.609 9.432 0
M  V30 2253 H 9.346 -4.088 9.724 0
M  V30 2254 H 9.776 -2.793 9.07 0
M  V30 2255 O -6.747 5.808 11.082 0
M  V30 2256 H -6.115 6.134 10.441 0
M  V30 2257 H -6.37 6.041 11.931 0
M  V30 2258 O -9.736 -14.748 -1.694 0
M  V30 2259 H -10.529 -14.221 -1.602 0
M  V30 2260 H -9.453 -14.6 -2.597 0
M  V30 2261 O 2.99 16.487 -7.54 0
M  V30 2262 H 3.141 15.556 -7.704 0
M  V30 2263 H 3.536 16.936 -8.186 0
M  V30 2264 O 5.389 1.723 -3.811 0
M  V30 2265 H 5.685 2.467 -4.335 0
M  V30 2266 H 4.527 1.985 -3.487 0
M  V30 2267 O -3.626 -14.654 14.229 0
M  V30 2268 H -3.775 -15.089 15.068 0
M  V30 2269 H -2.674 -14.616 14.144 0
M  V30 2270 O 17.271 3.914 10.549 0
M  V30 2271 H 16.733 4.628 10.206 0
M  V30 2272 H 16.7 3.147 10.516 0
M  V30 2273 O -10.665 -7.355 -14.458 0
M  V30 2274 H -10.418 -6.498 -14.805 0
M  V30 2275 H -10.451 -7.308 -13.527 0
M  V30 2276 O -8.951 -13.503 -4.306 0
M  V30 2277 H -9.241 -12.599 -4.188 0
M  V30 2278 H -8.057 -13.428 -4.638 0
M  V30 2279 O -11.826 -6.038 9.354 0
M  V30 2280 H -11.747 -5.489 10.134 0
M  V30 2281 H -12.25 -6.838 9.666 0
M  V30 2282 O 2.807 -14.52 -12.838 0
M  V30 2283 H 2.169 -14.483 -12.126 0
M  V30 2284 H 3.638 -14.715 -12.406 0
M  V30 2285 O -11.6 0.778 12.871 0
M  V30 2286 H -11.437 0.823 11.929 0
M  V30 2287 H -12.52 0.525 12.944 0
M  V30 2288 O -1.925 -14.592 -11.356 0
M  V30 2289 H -2.667 -14.461 -10.766 0
M  V30 2290 H -2.319 -14.897 -12.173 0
M  V30 2291 O -2.382 6.355 -9.884 0
M  V30 2292 H -2.385 6.617 -10.805 0
M  V30 2293 H -1.454 6.276 -9.661 0
M  V30 2294 O -5.191 14.681 -12.719 0
M  V30 2295 H -4.803 15.371 -12.182 0
M  V30 2296 H -5.171 15.03 -13.61 0
M  V30 2297 O -13.641 -8.096 7.84 0
M  V30 2298 H -13.227 -8.678 8.477 0
M  V30 2299 H -14.198 -7.522 8.365 0
M  V30 2300 O 7.732 6.957 -4.432 0
M  V30 2301 H 6.822 6.755 -4.648 0
M  V30 2302 H 7.804 6.764 -3.497 0
M  V30 2303 O 6.011 16.058 -11.104 0
M  V30 2304 H 6.051 15.108 -10.998 0
M  V30 2305 H 6.588 16.4 -10.421 0
M  V30 2306 O 11.043 16.189 9.356 0
M  V30 2307 H 10.837 16.248 8.424 0
M  V30 2308 H 10.314 15.695 9.732 0
M  V30 2309 O 8.346 -6.3 7.142 0
M  V30 2310 H 9.241 -6.571 7.347 0
M  V30 2311 H 8.061 -5.811 7.914 0
M  V30 2312 O -0.361 11.263 -8.851 0
M  V30 2313 H -1.215 11.614 -8.598 0
M  V30 2314 H -0.055 11.85 -9.542 0
M  V30 2315 O 10.558 5.057 10.845 0
M  V30 2316 H 10.865 4.741 9.995 0
M  V30 2317 H 9.801 4.508 11.046 0
M  V30 2318 O 0.303 -10.912 -0.772 0
M  V30 2319 H -0.496 -11.417 -0.62 0
M  V30 2320 H 0.683 -11.295 -1.562 0
M  V30 2321 O 2.766 1.727 -2.507 0
M  V30 2322 H 1.905 2.139 -2.444 0
M  V30 2323 H 2.784 1.098 -1.786 0
M  V30 2324 O 11.305 -13.159 -6.072 0
M  V30 2325 H 11.542 -12.398 -5.544 0
M  V30 2326 H 11.905 -13.131 -6.817 0
M  V30 2327 O -15.144 -13.462 -0.902 0
M  V30 2328 H -15.983 -13.836 -0.635 0
M  V30 2329 H -14.718 -13.216 -0.081 0
M  V30 2330 O -4.405 -16.041 6.048 0
M  V30 2331 H -4.577 -15.403 5.356 0
M  V30 2332 H -4.766 -16.862 5.714 0
M  V30 2333 O 14.696 9.31 -4.018 0
M  V30 2334 H 14.165 8.781 -4.614 0
M  V30 2335 H 14.435 9.021 -3.143 0
M  V30 2336 O -13.861 9.871 6.933 0
M  V30 2337 H -14.266 10.168 7.748 0
M  V30 2338 H -13.149 9.295 7.215 0
M  V30 2339 O 14.781 -8.022 5 0
M  V30 2340 H 15.246 -7.92 4.169 0
M  V30 2341 H 13.985 -8.501 4.773 0
M  V30 2342 O -7.886 -9.914 -3.198 0
M  V30 2343 H -8.349 -9.484 -3.917 0
M  V30 2344 H -8.337 -9.615 -2.408 0
M  V30 2345 O 11.253 -13.205 -13.49 0
M  V30 2346 H 11.201 -14.089 -13.853 0
M  V30 2347 H 10.382 -12.835 -13.632 0
M  V30 2348 O -12.168 -4.162 4.856 0
M  V30 2349 H -12.102 -3.627 5.647 0
M  V30 2350 H -11.575 -4.897 5.014 0
M  V30 2351 O 7.961 -13.919 14.39 0
M  V30 2352 H 8.14 -14.838 14.187 0
M  V30 2353 H 7.009 -13.872 14.47 0
M  V30 2354 O 6.675 -11.653 -9.582 0
M  V30 2355 H 6.133 -10.951 -9.223 0
M  V30 2356 H 6.927 -12.175 -8.82 0
M  V30 2357 O 11.666 -13.082 7.292 0
M  V30 2358 H 11.163 -12.399 6.849 0
M  V30 2359 H 12.318 -12.605 7.806 0
M  V30 2360 O 12.415 -9.906 3.247 0
M  V30 2361 H 11.935 -9.211 2.797 0
M  V30 2362 H 12.415 -10.637 2.629 0
M  V30 2363 O -4.114 6.593 10.249 0
M  V30 2364 H -4.258 7.432 10.686 0
M  V30 2365 H -3.195 6.387 10.421 0
M  V30 2366 O 10.239 1.864 14.173 0
M  V30 2367 H 9.702 1.071 14.183 0
M  V30 2368 H 9.827 2.441 14.816 0
M  V30 2369 O -10.37 -7.133 -11.677 0
M  V30 2370 H -9.415 -7.178 -11.63 0
M  V30 2371 H -10.6 -6.37 -11.146 0
M  V30 2372 O -1.762 -14.155 9.804 0
M  V30 2373 H -2.347 -13.877 9.099 0
M  V30 2374 H -2.275 -14.787 10.307 0
M  V30 2375 O -2.416 12.634 3.093 0
M  V30 2376 H -1.696 12.156 3.504 0
M  V30 2377 H -2.107 12.816 2.205 0
M  V30 2378 O -10.561 9.37 -7.948 0
M  V30 2379 H -10.554 10.324 -7.862 0
M  V30 2380 H -11.484 9.148 -8.071 0
M  V30 2381 O -10.046 -8.593 11.838 0
M  V30 2382 H -9.212 -9.011 11.622 0
M  V30 2383 H -10.686 -9.028 11.275 0
M  V30 2384 O 6.798 7.319 -15.17 0
M  V30 2385 H 6.987 6.869 -15.993 0
M  V30 2386 H 5.842 7.357 -15.132 0
M  V30 2387 O 14.611 -4.948 -4.924 0
M  V30 2388 H 14.278 -4.729 -4.053 0
M  V30 2389 H 15.529 -4.677 -4.904 0
M  V30 2390 O -13.067 -3.915 0.911 0
M  V30 2391 H -13.051 -3.21 1.559 0
M  V30 2392 H -13.94 -3.865 0.523 0
M  V30 2393 O -5.496 -16.318 1.057 0
M  V30 2394 H -5.191 -15.508 0.649 0
M  V30 2395 H -6.378 -16.445 0.708 0
M  V30 2396 O -15.792 1.039 -7.506 0
M  V30 2397 H -16.01 1.952 -7.696 0
M  V30 2398 H -15.15 0.801 -8.176 0
M  V30 2399 O -4.875 11.874 -1.152 0
M  V30 2400 H -4.573 12.755 -1.372 0
M  V30 2401 H -5.507 11.659 -1.839 0
M  V30 2402 O 12.742 -0.646 -5.457 0
M  V30 2403 H 12.194 -0.948 -4.732 0
M  V30 2404 H 13.558 -1.136 -5.361 0
M  V30 2405 O 3.989 4.311 0.483 0
M  V30 2406 H 4.298 3.42 0.319 0
M  V30 2407 H 3.85 4.347 1.43 0
M  V30 2408 O -15.931 -6.857 -12.733 0
M  V30 2409 H -16.529 -6.733 -13.47 0
M  V30 2410 H -16.193 -7.694 -12.35 0
M  V30 2411 O -9.901 7.421 -5.996 0
M  V30 2412 H -10.126 6.581 -6.398 0
M  V30 2413 H -10.027 8.063 -6.695 0
M  V30 2414 O -14.158 -7.109 -4.343 0
M  V30 2415 H -13.471 -7.607 -4.787 0
M  V30 2416 H -13.729 -6.297 -4.073 0
M  V30 2417 O 9.662 11.212 -7.862 0
M  V30 2418 H 10.016 10.328 -7.96 0
M  V30 2419 H 10.107 11.724 -8.537 0
M  V30 2420 O -13.339 -16.501 -7.215 0
M  V30 2421 H -12.569 -16.423 -6.651 0
M  V30 2422 H -13.489 -15.614 -7.541 0
M  V30 2423 O -15.24 -5.222 7.902 0
M  V30 2424 H -15.002 -5.075 8.818 0
M  V30 2425 H -15.808 -5.991 7.923 0
M  V30 2426 O 4.816 -15.864 -2.806 0
M  V30 2427 H 5.203 -15.976 -1.938 0
M  V30 2428 H 5.555 -15.936 -3.409 0
M  V30 2429 O 10.823 -3.138 -1.187 0
M  V30 2430 H 11.05 -2.685 -0.375 0
M  V30 2431 H 9.882 -3.301 -1.115 0
M  V30 2432 O 10.542 14.07 1.813 0
M  V30 2433 H 10.576 13.606 0.976 0
M  V30 2434 H 9.636 14.368 1.885 0
M  V30 2435 O 4.389 0.259 8.081 0
M  V30 2436 H 4.33 0.747 7.259 0
M  V30 2437 H 3.84 -0.512 7.943 0
M  V30 2438 O 16.474 -14.85 -3.152 0
M  V30 2439 H 16.5 -14.554 -2.242 0
M  V30 2440 H 17.394 -14.952 -3.397 0
M  V30 2441 O -12.16 -5.338 -2.976 0
M  V30 2442 H -11.667 -5.426 -3.791 0
M  V30 2443 H -11.805 -4.549 -2.564 0
M  V30 2444 O -10.647 -2.596 14.079 0
M  V30 2445 H -10.881 -2.037 13.338 0
M  V30 2446 H -9.748 -2.87 13.898 0
M  V30 2447 O -11.478 -13.756 7.001 0
M  V30 2448 H -12.162 -14.366 6.727 0
M  V30 2449 H -11.455 -13.094 6.31 0
M  V30 2450 O -13.387 4.88 -11.678 0
M  V30 2451 H -13.528 5.065 -12.607 0
M  V30 2452 H -12.956 4.026 -11.666 0
M  V30 2453 O -14.682 -7.357 10.564 0
M  V30 2454 H -14.233 -7.79 11.29 0
M  V30 2455 H -15.328 -7.997 10.266 0
M  V30 2456 O 11.111 11.03 14.399 0
M  V30 2457 H 11.739 11.704 14.658 0
M  V30 2458 H 10.388 11.124 15.019 0
M  V30 2459 O 1.286 -14.742 0.538 0
M  V30 2460 H 0.565 -14.256 0.939 0
M  V30 2461 H 1.939 -14.074 0.329 0
M  V30 2462 O -5.904 -1.909 -8.403 0
M  V30 2463 H -6.205 -1.551 -7.568 0
M  V30 2464 H -5.479 -1.172 -8.841 0
M  V30 2465 O -0.687 4.398 11.495 0
M  V30 2466 H -1.427 4.614 12.063 0
M  V30 2467 H -0.401 5.241 11.144 0
M  V30 2468 O 8.059 -5.943 4.341 0
M  V30 2469 H 8.288 -5.024 4.478 0
M  V30 2470 H 7.963 -6.301 5.224 0
M  V30 2471 O 16.558 2.382 1.589 0
M  V30 2472 H 16.21 1.763 0.947 0
M  V30 2473 H 15.788 2.682 2.073 0
M  V30 2474 O 14.772 1.206 -14.233 0
M  V30 2475 H 14.616 0.976 -15.149 0
M  V30 2476 H 14.51 0.427 -13.743 0
M  V30 2477 O -15.397 -2.314 -4.878 0
M  V30 2478 H -15.62 -1.998 -5.753 0
M  V30 2479 H -15.87 -3.142 -4.794 0
M  V30 2480 O 2.895 -5.757 -8.972 0
M  V30 2481 H 1.983 -5.987 -8.793 0
M  V30 2482 H 3.393 -6.532 -8.712 0
M  V30 2483 O -6.798 -16.82 10.253 0
M  V30 2484 H -6.791 -16.308 9.444 0
M  V30 2485 H -7.626 -16.591 10.675 0
M  V30 2486 O 3.672 10.979 -15.03 0
M  V30 2487 H 3.172 11.627 -14.533 0
M  V30 2488 H 3.344 10.134 -14.721 0
M  V30 2489 O -2.414 -6.965 14.438 0
M  V30 2490 H -2.744 -6.189 14.891 0
M  V30 2491 H -2.055 -6.629 13.617 0
M  V30 2492 O -14.983 6.514 12.066 0
M  V30 2493 H -14.466 6.468 11.261 0
M  V30 2494 H -15.838 6.159 11.823 0
M  V30 2495 O 14.032 1.768 -4.448 0
M  V30 2496 H 13.503 1.037 -4.768 0
M  V30 2497 H 14.918 1.411 -4.379 0
M  V30 2498 O 7.569 10.351 -11.145 0
M  V30 2499 H 7.524 9.502 -10.706 0
M  V30 2500 H 7.146 10.207 -11.991 0
M  V30 2501 O 16.141 13.389 -12.498 0
M  V30 2502 H 16.575 14.123 -12.063 0
M  V30 2503 H 15.478 13.097 -11.873 0
M  V30 2504 O -5.983 6.288 13.822 0
M  V30 2505 H -6.774 6.397 14.349 0
M  V30 2506 H -5.388 6.967 14.137 0
M  V30 2507 O 1.449 -8.452 -16.052 0
M  V30 2508 H 0.763 -9.064 -15.786 0
M  V30 2509 H 1.299 -8.314 -16.988 0
M  V30 2510 O 9.964 0.804 6.013 0
M  V30 2511 H 9.221 1.321 6.323 0
M  V30 2512 H 10.567 1.447 5.641 0
M  V30 2513 O -5.636 15.786 5.008 0
M  V30 2514 H -5.609 15.206 4.246 0
M  V30 2515 H -6.564 15.989 5.122 0
M  V30 2516 O -6.585 -1.088 11.435 0
M  V30 2517 H -7.02 -1.624 10.771 0
M  V30 2518 H -5.679 -1.396 11.437 0
M  V30 2519 O 2.672 5.91 -1.15 0
M  V30 2520 H 3.224 5.252 -0.726 0
M  V30 2521 H 3.157 6.729 -1.052 0
M  V30 2522 O -16.187 4.966 3.911 0
M  V30 2523 H -15.731 4.27 3.438 0
M  V30 2524 H -16.968 5.141 3.386 0
M  V30 2525 O 11.202 15.373 6.295 0
M  V30 2526 H 10.317 15.642 6.047 0
M  V30 2527 H 11.725 16.171 6.221 0
M  V30 2528 O -6.237 -15.472 12.889 0
M  V30 2529 H -6.755 -15.898 12.206 0
M  V30 2530 H -5.612 -16.14 13.17 0
M  V30 2531 O 15.856 15.221 16.785 0
M  V30 2532 H 16.179 15.414 15.904 0
M  V30 2533 H 14.909 15.136 16.68 0
M  V30 2534 O 15.23 -11.764 -1.509 0
M  V30 2535 H 15.622 -11.579 -0.656 0
M  V30 2536 H 14.497 -11.152 -1.575 0
M  V30 2537 O -2.662 12.893 -14.753 0
M  V30 2538 H -2.059 12.184 -14.53 0
M  V30 2539 H -3.522 12.572 -14.482 0
M  V30 2540 O -7.26 -12.106 7.246 0
M  V30 2541 H -7.069 -12.574 6.433 0
M  V30 2542 H -8.104 -11.684 7.087 0
M  V30 2543 O 10.411 -4.638 -5.631 0
M  V30 2544 H 10.908 -3.832 -5.77 0
M  V30 2545 H 9.56 -4.343 -5.307 0
M  V30 2546 O -7.685 -10.046 4.064 0
M  V30 2547 H -8.147 -10.745 3.602 0
M  V30 2548 H -7.724 -10.3 4.986 0
M  V30 2549 O 7.614 5.844 -12.298 0
M  V30 2550 H 7.457 6.732 -12.618 0
M  V30 2551 H 7.321 5.277 -13.011 0
M  V30 2552 O 3.59 -11.278 8.186 0
M  V30 2553 H 3.203 -12.106 8.469 0
M  V30 2554 H 4.499 -11.497 7.978 0
M  V30 2555 O 1.256 11.127 6.615 0
M  V30 2556 H 1.748 11.026 7.43 0
M  V30 2557 H 0.643 10.391 6.613 0
M  V30 2558 O 7.655 -6.57 -5.371 0
M  V30 2559 H 7.117 -5.96 -4.867 0
M  V30 2560 H 7.642 -6.221 -6.262 0
M  V30 2561 O -1.933 3.343 15.405 0
M  V30 2562 H -2.494 2.569 15.359 0
M  V30 2563 H -2.238 3.903 14.691 0
M  V30 2564 O -7.08 -15.194 7.971 0
M  V30 2565 H -7.207 -15.493 7.07 0
M  V30 2566 H -6.246 -14.725 7.953 0
M  V30 2567 O 14.442 -1.757 -2.13 0
M  V30 2568 H 14.373 -2.665 -2.425 0
M  V30 2569 H 15.244 -1.734 -1.608 0
M  V30 2570 O -15.79 -9.839 9.865 0
M  V30 2571 H -15.622 -10.495 9.189 0
M  V30 2572 H -16.284 -10.308 10.538 0
M  V30 2573 O -13.219 13.305 11.274 0
M  V30 2574 H -12.547 12.896 11.82 0
M  V30 2575 H -12.768 13.518 10.457 0
M  V30 2576 O -4.586 -15.64 -5.169 0
M  V30 2577 H -4.642 -16.189 -4.386 0
M  V30 2578 H -3.709 -15.805 -5.515 0
M  V30 2579 O 7.922 8.455 4.486 0
M  V30 2580 H 8.141 9.364 4.285 0
M  V30 2581 H 7.4 8.163 3.739 0
M  V30 2582 O 5.619 -0.351 -5.802 0
M  V30 2583 H 5.788 0.505 -5.409 0
M  V30 2584 H 4.665 -0.41 -5.85 0
M  V30 2585 O 11.692 -7.119 5.12 0
M  V30 2586 H 11.805 -6.169 5.154 0
M  V30 2587 H 11.028 -7.257 4.445 0
M  V30 2588 O -8.282 2.527 -4.824 0
M  V30 2589 H -7.949 1.631 -4.767 0
M  V30 2590 H -8.283 2.723 -5.76 0
M  V30 2591 O 13.577 -11.645 8.681 0
M  V30 2592 H 13.976 -11.165 7.956 0
M  V30 2593 H 13.933 -11.231 9.468 0
M  V30 2594 O 6.79 -7.302 -8.429 0
M  V30 2595 H 7.634 -7.711 -8.623 0
M  V30 2596 H 6.962 -6.362 -8.484 0
M  V30 2597 O 1.6 13.576 0.021 0
M  V30 2598 H 1.839 13.49 -0.902 0
M  V30 2599 H 0.779 14.068 0.011 0
M  V30 2600 O 13.455 4.169 -2.856 0
M  V30 2601 H 13.037 3.452 -3.333 0
M  V30 2602 H 14.372 3.904 -2.778 0
M  V30 2603 O -10.52 16.835 3.654 0
M  V30 2604 H -10.564 17.306 2.822 0
M  V30 2605 H -11.206 16.171 3.59 0
M  V30 2606 O -14.418 6.399 7.493 0
M  V30 2607 H -15.301 6.116 7.256 0
M  V30 2608 H -13.904 5.592 7.514 0
M  V30 2609 O 5.26 -14.339 -11.131 0
M  V30 2610 H 6.197 -14.309 -11.324 0
M  V30 2611 H 5.066 -13.481 -10.754 0
M  V30 2612 O -5.047 -6.585 9.535 0
M  V30 2613 H -5.404 -6.088 10.271 0
M  V30 2614 H -4.65 -7.357 9.937 0
M  V30 2615 O 8.772 -3.4 5.45 0
M  V30 2616 H 8.261 -2.861 6.054 0
M  V30 2617 H 9.599 -3.553 5.907 0
M  V30 2618 O 10.685 5.672 0.92 0
M  V30 2619 H 11.424 5.505 0.336 0
M  V30 2620 H 10.656 6.624 1.006 0
M  V30 2621 O -3.277 8.836 3.544 0
M  V30 2622 H -3.604 7.939 3.615 0
M  V30 2623 H -2.822 8.86 2.702 0
M  V30 2624 O -6.604 9.246 8.668 0
M  V30 2625 H -7.377 8.962 9.157 0
M  V30 2626 H -6.915 9.351 7.769 0
M  V30 2627 O -4.253 -11.361 1.709 0
M  V30 2628 H -3.971 -10.763 2.402 0
M  V30 2629 H -4.027 -10.909 0.896 0
M  V30 2630 O -14.96 8.839 -15.642 0
M  V30 2631 H -14.716 8.865 -14.717 0
M  V30 2632 H -15.224 9.737 -15.846 0
M  V30 2633 O 16.768 0.492 -4.762 0
M  V30 2634 H 16.814 0.172 -5.663 0
M  V30 2635 H 17.227 1.331 -4.781 0
M  V30 2636 O 6 -0.691 10.124 0
M  V30 2637 H 6.493 0.028 10.519 0
M  V30 2638 H 5.446 -0.27 9.467 0
M  V30 2639 O 1.145 -4.565 -12.444 0
M  V30 2640 H 0.958 -5.095 -13.219 0
M  V30 2641 H 0.934 -3.67 -12.708 0
M  V30 2642 O 6.857 -3.724 -8.099 0
M  V30 2643 H 7.097 -2.814 -7.928 0
M  V30 2644 H 7.192 -3.9 -8.978 0
M  V30 2645 O 13.887 8.675 16.14 0
M  V30 2646 H 13.814 9.183 16.948 0
M  V30 2647 H 14.825 8.664 15.948 0
M  V30 2648 O 5.118 -13.657 13.986 0
M  V30 2649 H 4.437 -13.981 13.397 0
M  V30 2650 H 4.68 -13.565 14.832 0
M  V30 2651 O 15.212 3.045 13.775 0
M  V30 2652 H 15.041 2.364 13.124 0
M  V30 2653 H 14.82 2.71 14.581 0
M  V30 2654 O 12.162 -4.024 -15.577 0
M  V30 2655 H 12.138 -4.442 -16.438 0
M  V30 2656 H 11.65 -3.222 -15.686 0
M  V30 2657 O 12.295 17.014 -5.403 0
M  V30 2658 H 12.395 16.496 -4.605 0
M  V30 2659 H 12.949 16.657 -6.004 0
M  V30 2660 O -3.318 13.239 -9.074 0
M  V30 2661 H -2.909 13.209 -9.938 0
M  V30 2662 H -4.067 13.825 -9.183 0
M  V30 2663 O 13.739 -11.436 -5.618 0
M  V30 2664 H 14.49 -11.06 -6.076 0
M  V30 2665 H 13.983 -12.348 -5.463 0
M  V30 2666 O -5.536 11.992 6.427 0
M  V30 2667 H -6.405 11.934 6.823 0
M  V30 2668 H -5.661 11.687 5.528 0
M  V30 2669 O -9.989 -17.058 16.061 0
M  V30 2670 H -9.426 -16.284 16.038 0
M  V30 2671 H -10.878 -16.707 16.111 0
M  V30 2672 O -11.286 -8.59 -9.089 0
M  V30 2673 H -11.104 -7.734 -8.7 0
M  V30 2674 H -10.43 -9.013 -9.15 0
M  V30 2675 O -2.312 12.942 -6.4 0
M  V30 2676 H -2.837 13.132 -7.178 0
M  V30 2677 H -1.54 13.5 -6.49 0
M  V30 2678 O 0.708 3.624 15.697 0
M  V30 2679 H 0.751 2.918 16.342 0
M  V30 2680 H -0.196 3.606 15.382 0
M  V30 2681 O -3.489 -12.487 -5.088 0
M  V30 2682 H -2.554 -12.314 -5.204 0
M  V30 2683 H -3.59 -12.635 -4.147 0
M  V30 2684 O -16.013 2.614 14.228 0
M  V30 2685 H -16.128 1.754 14.633 0
M  V30 2686 H -16.882 3.014 14.263 0
M  V30 2687 O 6.388 11.49 12.048 0
M  V30 2688 H 7.172 11.026 12.342 0
M  V30 2689 H 6.4 12.314 12.533 0
M  V30 2690 O -13.424 -6.674 -11.571 0
M  V30 2691 H -13.426 -6.139 -10.777 0
M  V30 2692 H -14.349 -6.847 -11.747 0
M  V30 2693 O -9.202 13.625 -5.843 0
M  V30 2694 H -8.436 13.761 -5.285 0
M  V30 2695 H -9.706 14.434 -5.758 0
M  V30 2696 O -7.497 -6.101 14.873 0
M  V30 2697 H -8.054 -6.546 15.512 0
M  V30 2698 H -6.711 -6.645 14.821 0
M  V30 2699 O 15.573 5.268 -9.6 0
M  V30 2700 H 16.17 5.996 -9.772 0
M  V30 2701 H 15.526 4.795 -10.431 0
M  V30 2702 O 0.537 4.5 1.316 0
M  V30 2703 H 0.256 3.585 1.324 0
M  V30 2704 H 1.002 4.601 0.485 0
M  V30 2705 O 1.004 -1.564 -12.944 0
M  V30 2706 H 1.399 -1.309 -13.777 0
M  V30 2707 H 1.561 -1.158 -12.28 0
M  V30 2708 O 0.486 14.227 15.649 0
M  V30 2709 H 1.232 13.631 15.724 0
M  V30 2710 H -0.278 13.677 15.821 0
M  V30 2711 O 1.964 -10.745 4.481 0
M  V30 2712 H 1.655 -9.969 4.014 0
M  V30 2713 H 2.863 -10.868 4.175 0
M  V30 2714 O 16.996 -10.7 -11.472 0
M  V30 2715 H 16.124 -11.051 -11.649 0
M  V30 2716 H 17.482 -11.437 -11.103 0
M  V30 2717 O -14.14 -12.404 -10.899 0
M  V30 2718 H -14.57 -12.9 -11.596 0
M  V30 2719 H -13.229 -12.695 -10.924 0
M  V30 2720 O 1.265 -7.296 11.437 0
M  V30 2721 H 0.501 -7.689 11.859 0
M  V30 2722 H 0.951 -7.028 10.573 0
M  V30 2723 O 13.852 9.86 9.719 0
M  V30 2724 H 12.967 10.154 9.505 0
M  V30 2725 H 14.391 10.175 8.993 0
M  V30 2726 O 4.04 9.544 -4.341 0
M  V30 2727 H 3.084 9.574 -4.3 0
M  V30 2728 H 4.291 10.389 -4.714 0
M  V30 2729 O 0.049 12.277 -4.302 0
M  V30 2730 H 0.033 12.57 -5.213 0
M  V30 2731 H -0.398 12.972 -3.819 0
M  V30 2732 O -11.68 -15.157 -5.061 0
M  V30 2733 H -10.844 -14.731 -4.872 0
M  V30 2734 H -12.335 -14.592 -4.651 0
M  V30 2735 O 2.222 -10.504 11.038 0
M  V30 2736 H 1.466 -11.062 10.858 0
M  V30 2737 H 1.978 -9.647 10.688 0
M  V30 2738 O 16.373 9.767 -7.553 0
M  V30 2739 H 15.526 9.34 -7.682 0
M  V30 2740 H 16.172 10.547 -7.035 0
M  V30 2741 O -7.215 8.505 -8.183 0
M  V30 2742 H -7.104 7.638 -8.573 0
M  V30 2743 H -6.518 9.034 -8.571 0
M  V30 2744 O 11.932 7.546 13.775 0
M  V30 2745 H 12.704 7.561 14.341 0
M  V30 2746 H 12.2 8.026 12.991 0
M  V30 2747 O 9.766 0.929 -0.38 0
M  V30 2748 H 9.688 1.77 0.07 0
M  V30 2749 H 10.129 0.337 0.279 0
M  V30 2750 O -5.004 -11.074 -13.102 0
M  V30 2751 H -4.318 -11.731 -13.214 0
M  V30 2752 H -5.37 -11.255 -12.236 0
M  V30 2753 O 14.822 0.104 13.481 0
M  V30 2754 H 14.113 0.478 12.958 0
M  V30 2755 H 14.899 -0.798 13.172 0
M  V30 2756 O -11.624 0.402 15.667 0
M  V30 2757 H -11.524 0.308 14.72 0
M  V30 2758 H -12.2 -0.319 15.921 0
M  V30 2759 O 0.582 -11.611 6.717 0
M  V30 2760 H 0.946 -11.311 7.55 0
M  V30 2761 H 1.296 -11.497 6.089 0
M  V30 2762 O 0.422 -13.567 -14.259 0
M  V30 2763 H 1.31 -13.426 -14.589 0
M  V30 2764 H 0.497 -13.451 -13.312 0
M  V30 2765 O -13.66 -13.089 16.147 0
M  V30 2766 H -12.824 -12.77 16.489 0
M  V30 2767 H -14.25 -13.068 16.901 0
M  V30 2768 O -6.165 -10.951 -10.391 0
M  V30 2769 H -6.22 -11.745 -9.859 0
M  V30 2770 H -6.643 -10.292 -9.888 0
M  V30 2771 O 4.072 12.092 5.632 0
M  V30 2772 H 4.371 12.7 6.308 0
M  V30 2773 H 3.15 11.938 5.838 0
M  V30 2774 O -0.726 6.679 -5.747 0
M  V30 2775 H -0.234 5.914 -5.452 0
M  V30 2776 H -0.922 7.163 -4.944 0
M  V30 2777 O -5.106 -10.803 -2.51 0
M  V30 2778 H -6.041 -10.605 -2.549 0
M  V30 2779 H -4.688 -10.084 -2.983 0
M  V30 2780 O -13.239 7.798 -7.521 0
M  V30 2781 H -13.684 7.289 -6.844 0
M  V30 2782 H -13.811 8.551 -7.67 0
M  V30 2783 O -0.044 4.58 -11.339 0
M  V30 2784 H 0.098 5.12 -10.562 0
M  V30 2785 H 0.595 3.872 -11.26 0
M  V30 2786 O 1.687 -13.664 8.689 0
M  V30 2787 H 1.065 -13.325 9.333 0
M  V30 2788 H 1.225 -14.389 8.267 0
M  V30 2789 O -14.477 6.297 0.004 0
M  V30 2790 H -14.551 6.792 0.819 0
M  V30 2791 H -13.537 6.264 -0.173 0
M  V30 2792 O 6.632 -14.473 -8.214 0
M  V30 2793 H 6.871 -14.579 -9.135 0
M  V30 2794 H 7.468 -14.357 -7.762 0
M  V30 2795 O -15.34 0.903 3.559 0
M  V30 2796 H -15.732 1.569 2.994 0
M  V30 2797 H -14.727 0.436 2.992 0
M  V30 2798 O 7.87 3.744 -5.569 0
M  V30 2799 H 8.671 4.071 -5.977 0
M  V30 2800 H 8.012 3.866 -4.63 0
M  V30 2801 O 3.632 10.807 -11.841 0
M  V30 2802 H 3.312 11.251 -11.055 0
M  V30 2803 H 3.454 9.88 -11.681 0
M  V30 2804 O -3.254 15.42 -4.046 0
M  V30 2805 H -2.772 16.241 -3.944 0
M  V30 2806 H -2.578 14.741 -4.022 0
M  V30 2807 O 2.219 2.205 -13.501 0
M  V30 2808 H 2.001 1.754 -12.685 0
M  V30 2809 H 3.169 2.12 -13.576 0
M  V30 2810 O 11.285 -9.941 -5.183 0
M  V30 2811 H 12.148 -10.209 -5.498 0
M  V30 2812 H 11.307 -8.984 -5.208 0
M  V30 2813 O 6.78 0.892 -14.521 0
M  V30 2814 H 7.471 0.253 -14.697 0
M  V30 2815 H 7.226 1.608 -14.069 0
M  V30 2816 O 16.461 -13.584 13.73 0
M  V30 2817 H 16.492 -12.817 14.301 0
M  V30 2818 H 17.134 -14.169 14.077 0
M  V30 2819 O 13.601 7.571 -8.047 0
M  V30 2820 H 14.256 7.097 -7.535 0
M  V30 2821 H 13.346 6.959 -8.737 0
M  V30 2822 O -8.865 7.669 2.381 0
M  V30 2823 H -8.526 7.722 1.487 0
M  V30 2824 H -8.415 8.371 2.85 0
M  V30 2825 O -16.033 -15.033 15.363 0
M  V30 2826 H -15.291 -14.446 15.22 0
M  V30 2827 H -15.875 -15.413 16.227 0
M  V30 2828 O -7.575 10.263 -2.583 0
M  V30 2829 H -7.874 9.363 -2.454 0
M  V30 2830 H -7.728 10.436 -3.512 0
M  V30 2831 O -0.68 8.947 4.834 0
M  V30 2832 H -0.583 9.811 4.432 0
M  V30 2833 H -1.377 8.526 4.331 0
M  V30 2834 O 9.807 -11.854 -10.004 0
M  V30 2835 H 8.976 -11.715 -10.459 0
M  V30 2836 H 9.657 -11.515 -9.122 0
M  V30 2837 O 3.533 -8.251 -2.004 0
M  V30 2838 H 3.222 -8.922 -2.611 0
M  V30 2839 H 3.023 -7.472 -2.225 0
M  V30 2840 O -4.392 -9.015 10.82 0
M  V30 2841 H -4.116 -9.658 11.474 0
M  V30 2842 H -4.558 -9.532 10.031 0
M  V30 2843 O -8.464 6.829 15.419 0
M  V30 2844 H -8.98 6.033 15.544 0
M  V30 2845 H -8.304 7.153 16.305 0
M  V30 2846 O 5.457 -2.549 -12.993 0
M  V30 2847 H 4.921 -2.667 -12.208 0
M  V30 2848 H 4.85 -2.688 -13.72 0
M  V30 2849 O 5.039 2.387 -12.652 0
M  V30 2850 H 5.388 2.34 -11.762 0
M  V30 2851 H 5.61 1.815 -13.164 0
M  V30 2852 O -3.378 -10.334 12.941 0
M  V30 2853 H -3.774 -11.2 13.035 0
M  V30 2854 H -3.411 -9.958 13.821 0
M  V30 2855 O 0.252 3.068 7.751 0
M  V30 2856 H 1.114 3.277 7.391 0
M  V30 2857 H -0.165 3.919 7.886 0
M  V30 2858 O 12.113 -9.596 13.945 0
M  V30 2859 H 11.917 -10.507 13.724 0
M  V30 2860 H 11.733 -9.473 14.815 0
M  V30 2861 O 0.653 14.14 -6.342 0
M  V30 2862 H 1.463 13.769 -6.693 0
M  V30 2863 H 0.289 14.649 -7.066 0
M  V30 2864 O 0.272 -12.576 10.61 0
M  V30 2865 H -0.572 -12.933 10.335 0
M  V30 2866 H 0.321 -12.769 11.547 0
M  V30 2867 O -14.161 14.213 0.123 0
M  V30 2868 H -14.49 15.055 -0.193 0
M  V30 2869 H -14.779 13.569 -0.225 0
M  V30 2870 O 5.263 -13.433 10.085 0
M  V30 2871 H 5.353 -12.526 10.376 0
M  V30 2872 H 6.152 -13.699 9.849 0
M  V30 2873 O 11.111 14.774 -7.841 0
M  V30 2874 H 10.434 15.337 -7.464 0
M  V30 2875 H 11.5 14.33 -7.088 0
M  V30 2876 O 8.687 -1.591 8.148 0
M  V30 2877 H 8.52 -0.653 8.235 0
M  V30 2878 H 7.817 -1.99 8.14 0
M  V30 2879 O 7.734 13.131 -7.78 0
M  V30 2880 H 8.504 12.562 -7.766 0
M  V30 2881 H 7.799 13.642 -6.973 0
M  V30 2882 O -8.876 -0.139 13.213 0
M  V30 2883 H -8.197 -0.345 12.571 0
M  V30 2884 H -9.688 -0.123 12.707 0
M  V30 2885 O 15.197 -11.71 1.813 0
M  V30 2886 H 15.124 -12.183 2.642 0
M  V30 2887 H 14.332 -11.792 1.412 0
M  V30 2888 O 4.595 -8.538 0.363 0
M  V30 2889 H 5.302 -7.901 0.467 0
M  V30 2890 H 4.192 -8.314 -0.476 0
M  V30 2891 O 4.551 -11.483 3.735 0
M  V30 2892 H 4.366 -12.32 4.161 0
M  V30 2893 H 4.803 -11.719 2.842 0
M  V30 2894 O -4.456 -0.12 3.435 0
M  V30 2895 H -4.107 0.071 4.306 0
M  V30 2896 H -4.086 -0.974 3.21 0
M  V30 2897 O 5.089 -9.25 -8.363 0
M  V30 2898 H 4.87 -9.264 -7.431 0
M  V30 2899 H 5.809 -8.623 -8.431 0
M  V30 2900 O -2.659 4.214 -5.427 0
M  V30 2901 H -2.071 4.038 -4.693 0
M  V30 2902 H -2.542 5.146 -5.61 0
M  V30 2903 O -14.423 3.582 -0.707 0
M  V30 2904 H -13.874 4.357 -0.826 0
M  V30 2905 H -15.239 3.793 -1.161 0
M  V30 2906 O 7.822 -9.34 15.235 0
M  V30 2907 H 7.534 -9.853 14.48 0
M  V30 2908 H 7.181 -9.537 15.918 0
M  V30 2909 O -3.734 -14.162 7.982 0
M  V30 2910 H -3.476 -13.391 7.477 0
M  V30 2911 H -3.716 -14.88 7.35 0
M  V30 2912 O 13.819 -15.54 -1.103 0
M  V30 2913 H 13.303 -15.49 -1.908 0
M  V30 2914 H 14.672 -15.178 -1.343 0
M  V30 2915 O 8.063 14.955 -16.471 0
M  V30 2916 H 8.672 14.666 -15.791 0
M  V30 2917 H 7.2 14.701 -16.144 0
M  V30 2918 O -8.614 -4.656 11.63 0
M  V30 2919 H -8.6 -4.64 12.587 0
M  V30 2920 H -9.487 -4.98 11.409 0
M  V30 2921 O -1.828 16.879 5.762 0
M  V30 2922 H -1.976 15.958 5.549 0
M  V30 2923 H -2.701 17.229 5.938 0
M  V30 2924 O -12.939 9.332 4.541 0
M  V30 2925 H -13.049 9.759 5.391 0
M  V30 2926 H -12.293 8.644 4.701 0
M  V30 2927 O 10.977 -7.137 7.895 0
M  V30 2928 H 11.24 -7.841 8.488 0
M  V30 2929 H 11.44 -7.325 7.079 0
M  V30 2930 O -11.888 -8.38 -5.733 0
M  V30 2931 H -11.777 -7.517 -6.132 0
M  V30 2932 H -11.009 -8.758 -5.732 0
M  V30 2933 O 16.21 2.963 -2.446 0
M  V30 2934 H 16.895 2.899 -3.112 0
M  V30 2935 H 16.559 3.579 -1.802 0
M  V30 2936 O -2.952 11.271 7.549 0
M  V30 2937 H -3.674 11.377 6.93 0
M  V30 2938 H -3.379 11.182 8.402 0
M  V30 2939 O -14.543 13.383 -7.423 0
M  V30 2940 H -15.331 13.918 -7.327 0
M  V30 2941 H -13.967 13.903 -7.984 0
M  V30 2942 O 15.084 -3.992 10.232 0
M  V30 2943 H 14.334 -3.749 9.688 0
M  V30 2944 H 15.219 -4.922 10.052 0
M  V30 2945 O 11.367 6.862 7.273 0
M  V30 2946 H 11.488 6.297 6.51 0
M  V30 2947 H 10.68 7.475 7.011 0
M  V30 2948 O -15.564 -10.56 -7.781 0
M  V30 2949 H -14.983 -10.608 -7.021 0
M  V30 2950 H -16.396 -10.917 -7.47 0
M  V30 2951 O -3.664 -13.078 3.694 0
M  V30 2952 H -4.053 -12.669 2.921 0
M  V30 2953 H -3.144 -12.383 4.097 0
M  V30 2954 O -2.903 -7.904 -1.262 0
M  V30 2955 H -3.45 -8.13 -0.509 0
M  V30 2956 H -3.369 -8.267 -2.015 0
M  V30 2957 O -11.745 15.122 14.585 0
M  V30 2958 H -11.725 16.075 14.502 0
M  V30 2959 H -10.925 14.83 14.187 0
M  V30 2960 O 1.86 -8.288 -6.738 0
M  V30 2961 H 2.535 -8.038 -6.108 0
M  V30 2962 H 1.11 -8.54 -6.199 0
M  V30 2963 O 4.012 -6.992 10.899 0
M  V30 2964 H 4.332 -7.593 10.226 0
M  V30 2965 H 3.171 -7.361 11.17 0
M  V30 2966 O -1.349 -8.737 11.569 0
M  V30 2967 H -1.868 -9.26 12.179 0
M  V30 2968 H -1.809 -7.899 11.52 0
M  V30 2969 O 13.113 -9.989 -2.483 0
M  V30 2970 H 13.564 -9.145 -2.48 0
M  V30 2971 H 13.32 -10.369 -3.337 0
M  V30 2972 O -11.969 -3.253 -8.787 0
M  V30 2973 H -11.321 -2.553 -8.707 0
M  V30 2974 H -11.503 -4.044 -8.517 0
M  V30 2975 O -4.123 -3.26 14.8 0
M  V30 2976 H -4.891 -2.801 15.14 0
M  V30 2977 H -4.017 -4.013 15.381 0
M  V30 2978 O 10.134 -8.494 12.09 0
M  V30 2979 H 9.317 -8.902 11.803 0
M  V30 2980 H 10.354 -8.947 12.905 0
M  V30 2981 O -10.944 5.791 -8.417 0
M  V30 2982 H -10.59 5.77 -9.307 0
M  V30 2983 H -11.771 6.266 -8.5 0
M  V30 2984 O -8.587 -10.998 -13.223 0
M  V30 2985 H -7.789 -10.917 -13.746 0
M  V30 2986 H -8.344 -11.579 -12.502 0
M  V30 2987 O -15.831 16.805 -11.402 0
M  V30 2988 H -16.335 17.062 -12.175 0
M  V30 2989 H -15.66 15.872 -11.526 0
M  V30 2990 O -2.891 -9.347 -14.746 0
M  V30 2991 H -3.4 -9.616 -13.981 0
M  V30 2992 H -2.727 -8.414 -14.609 0
M  V30 2993 O 1.276 15.869 -14.071 0
M  V30 2994 H 0.347 15.949 -14.285 0
M  V30 2995 H 1.702 16.548 -14.595 0
M  V30 2996 O -4.23 9.76 -6.566 0
M  V30 2997 H -3.466 10.244 -6.252 0
M  V30 2998 H -3.897 8.883 -6.756 0
M  V30 2999 O -2.971 -11.159 -0.943 0
M  V30 3000 H -2.604 -11.985 -1.258 0
M  V30 3001 H -3.738 -11.01 -1.496 0
M  V30 3002 O -13.561 0.963 -5.968 0
M  V30 3003 H -14.378 1.01 -6.465 0
M  V30 3004 H -12.909 0.672 -6.605 0
M  V30 3005 O -2.266 -10.124 9.046 0
M  V30 3006 H -2.541 -9.542 8.337 0
M  V30 3007 H -1.814 -9.55 9.665 0
M  V30 3008 O -14.784 16.845 -0.768 0
M  V30 3009 H -13.857 17.038 -0.91 0
M  V30 3010 H -15.181 16.92 -1.636 0
M  V30 3011 O 10.85 13.049 4.298 0
M  V30 3012 H 10.865 13.643 3.547 0
M  V30 3013 H 10.787 13.626 5.059 0
M  V30 3014 O 3.832 12.461 2.926 0
M  V30 3015 H 4.15 12.256 3.805 0
M  V30 3016 H 3.138 13.106 3.066 0
M  V30 3017 O -10.738 -11.27 -3.292 0
M  V30 3018 H -10.628 -10.4 -3.676 0
M  V30 3019 H -11.56 -11.593 -3.66 0
M  V30 3020 O 6.083 -10.756 -16.327 0
M  V30 3021 H 5.985 -10.275 -15.505 0
M  V30 3022 H 5.198 -11.05 -16.54 0
M  V30 3023 O 1.941 16.572 5.886 0
M  V30 3024 H 1.269 15.927 6.106 0
M  V30 3025 H 1.525 17.14 5.237 0
M  V30 3026 O -16.606 5.186 -1.459 0
M  V30 3027 H -16.478 5.65 -2.286 0
M  V30 3028 H -16.064 5.662 -0.831 0
M  V30 3029 O -2.575 4.533 -12.453 0
M  V30 3030 H -1.69 4.371 -12.128 0
M  V30 3031 H -2.601 5.475 -12.62 0
M  V30 3032 O -0.159 -3.734 13.72 0
M  V30 3033 H -0.609 -2.93 13.464 0
M  V30 3034 H -0.654 -4.433 13.293 0
M  V30 3035 O 14.828 6.33 -14.402 0
M  V30 3036 H 15.17 6.412 -13.512 0
M  V30 3037 H 15.593 6.111 -14.934 0
M  V30 3038 O -13.121 -15.381 5.596 0
M  V30 3039 H -13.913 -15.889 5.423 0
M  V30 3040 H -12.699 -15.295 4.741 0
M  V30 3041 O 6.661 -8.613 6.764 0
M  V30 3042 H 7.179 -9.412 6.865 0
M  V30 3043 H 7.296 -7.903 6.855 0
M  V30 3044 O 15.792 -6.82 -14.189 0
M  V30 3045 H 15.216 -7.578 -14.089 0
M  V30 3046 H 15.263 -6.076 -13.899 0
M  V30 3047 O -12.026 -2.16 11.505 0
M  V30 3048 H -11.718 -1.489 10.896 0
M  V30 3049 H -12.9 -1.868 11.763 0
M  V30 3050 O -4.654 15.712 -16.181 0
M  V30 3051 H -3.75 15.519 -16.431 0
M  V30 3052 H -5.141 14.922 -16.413 0
M  V30 3053 O 2.012 16.864 -2.383 0
M  V30 3054 H 2.911 16.878 -2.053 0
M  V30 3055 H 2.089 16.519 -3.273 0
M  V30 3056 O 14.006 -10.667 -11.538 0
M  V30 3057 H 14.35 -10.637 -10.645 0
M  V30 3058 H 13.339 -11.352 -11.515 0
M  V30 3059 O -6.795 1.269 -9.375 0
M  V30 3060 H -5.989 1.574 -9.792 0
M  V30 3061 H -6.515 0.949 -8.517 0
M  V30 3062 O -16.148 -3.446 2.412 0
M  V30 3063 H -16.377 -4.331 2.129 0
M  V30 3064 H -16.263 -3.46 3.362 0
M  V30 3065 O -11.38 -16.224 10.086 0
M  V30 3066 H -10.799 -15.771 9.475 0
M  V30 3067 H -12.261 -16.029 9.768 0
M  V30 3068 O -1.928 12.248 15.34 0
M  V30 3069 H -2.386 12.388 16.169 0
M  V30 3070 H -1.528 11.383 15.43 0
M  V30 3071 O 12.402 4.634 14.581 0
M  V30 3072 H 12.675 3.825 15.013 0
M  V30 3073 H 12.551 4.471 13.649 0
M  V30 3074 O 1.353 4.785 -13.728 0
M  V30 3075 H 0.904 4.82 -12.883 0
M  V30 3076 H 1.662 3.882 -13.799 0
M  V30 3077 O -7.899 -3.262 14.325 0
M  V30 3078 H -7.221 -2.637 14.583 0
M  V30 3079 H -7.691 -4.057 14.815 0
M  V30 3080 O -16.948 14.911 -1.147 0
M  V30 3081 H -17.517 14.405 -1.726 0
M  V30 3082 H -16.136 15.019 -1.644 0
M  V30 3083 O 16.106 -13.761 -10.175 0
M  V30 3084 H 15.337 -13.984 -10.699 0
M  V30 3085 H 15.813 -13.044 -9.612 0
M  V30 3086 O 9.019 5.178 -14.718 0
M  V30 3087 H 8.48 5.967 -14.65 0
M  V30 3088 H 9.606 5.352 -15.454 0
M  V30 3089 O 12.808 -2.611 2.451 0
M  V30 3090 H 13.624 -2.17 2.216 0
M  V30 3091 H 13.085 -3.397 2.921 0
M  V30 3092 O -5.21 -11.21 9.053 0
M  V30 3093 H -5.113 -11.859 9.75 0
M  V30 3094 H -5.852 -11.593 8.456 0
M  V30 3095 O 6.77 8.503 14.816 0
M  V30 3096 H 5.975 8.94 14.512 0
M  V30 3097 H 7.128 9.09 15.481 0
M  V30 3098 O -8.158 8.142 -15.318 0
M  V30 3099 H -8.253 9.027 -15.671 0
M  V30 3100 H -8.853 8.069 -14.664 0
M  V30 3101 O -10.086 1.565 -15.204 0
M  V30 3102 H -10.006 0.699 -14.803 0
M  V30 3103 H -10.618 1.419 -15.986 0
M  V30 3104 O 7.839 13.362 7.036 0
M  V30 3105 H 7.567 13.176 7.935 0
M  V30 3106 H 7.04 13.257 6.518 0
M  V30 3107 O -3.868 -13.045 -15.125 0
M  V30 3108 H -4.234 -12.424 -15.754 0
M  V30 3109 H -3.625 -13.806 -15.652 0
M  V30 3110 O 2.962 -10.184 -4.214 0
M  V30 3111 H 2.746 -11.075 -3.937 0
M  V30 3112 H 3.855 -10.248 -4.551 0
M  V30 3113 O -11.725 -5.013 11.763 0
M  V30 3114 H -11.58 -5.439 12.608 0
M  V30 3115 H -11.777 -4.08 11.971 0
M  V30 3116 O 6.524 3.95 -15.959 0
M  V30 3117 H 6.562 4.725 -16.52 0
M  V30 3118 H 6.583 4.296 -15.068 0
M  V30 3119 O -0.993 -16.497 -6.957 0
M  V30 3120 H -0.864 -16.57 -7.903 0
M  V30 3121 H -1.905 -16.751 -6.819 0
M  V30 3122 O 1.7 12.931 10.763 0
M  V30 3123 H 1.859 13.785 10.361 0
M  V30 3124 H 2.289 12.908 11.517 0
M  V30 3125 O 6.839 9.763 -13.847 0
M  V30 3126 H 6.099 9.978 -14.414 0
M  V30 3127 H 7.191 8.949 -14.208 0
M  V30 3128 O -15.468 8.1 5.485 0
M  V30 3129 H -15.094 7.503 6.132 0
M  V30 3130 H -15.188 8.97 5.77 0
M  V30 3131 O -11.734 6.544 -15.052 0
M  V30 3132 H -11.597 5.953 -15.792 0
M  V30 3133 H -11.042 6.316 -14.431 0
M  V30 3134 O 10.716 -3.124 -11.053 0
M  V30 3135 H 11.389 -3.788 -10.905 0
M  V30 3136 H 11.2 -2.358 -11.362 0
M  V30 3137 O 3.81 -2.85 -7.921 0
M  V30 3138 H 3.409 -3.677 -7.656 0
M  V30 3139 H 4.696 -2.886 -7.559 0
M  V30 3140 O -11.728 -3.758 7.564 0
M  V30 3141 H -11.954 -4.428 8.21 0
M  V30 3142 H -11.3 -3.069 8.072 0
M  V30 3143 O 5.305 16.594 -13.964 0
M  V30 3144 H 6.23 16.742 -14.163 0
M  V30 3145 H 5.281 16.462 -13.017 0
M  V30 3146 O -2.912 4.844 12.946 0
M  V30 3147 H -3.784 4.476 12.804 0
M  V30 3148 H -3.059 5.787 13.024 0
M  V30 3149 O 7.502 -11.999 -7.095 0
M  V30 3150 H 8.259 -11.458 -7.322 0
M  V30 3151 H 7.784 -12.497 -6.328 0
M  V30 3152 O -4.438 9.194 11.226 0
M  V30 3153 H -5.155 9.549 10.701 0
M  V30 3154 H -4.175 9.918 11.795 0
M  V30 3155 O -1.347 -8.576 -8.483 0
M  V30 3156 H -1.062 -9.489 -8.44 0
M  V30 3157 H -1.849 -8.52 -9.296 0
M  V30 3158 O -10.121 -10.555 -6.32 0
M  V30 3159 H -10.38 -11.451 -6.533 0
M  V30 3160 H -9.697 -10.232 -7.116 0
M  V30 3161 O -11.64 16.225 -3.795 0
M  V30 3162 H -11.312 16.752 -4.522 0
M  V30 3163 H -12.278 15.634 -4.195 0
M  V30 3164 O -5.866 -6.733 -12.898 0
M  V30 3165 H -4.989 -6.931 -12.569 0
M  V30 3166 H -6.457 -7.17 -12.284 0
M  V30 3167 O -13.027 4.124 7.122 0
M  V30 3168 H -12.938 3.762 6.24 0
M  V30 3169 H -12.188 3.939 7.543 0
M  V30 3170 O -1.211 7.249 10.803 0
M  V30 3171 H -1.756 7.651 11.48 0
M  V30 3172 H -0.488 7.864 10.681 0
M  V30 3173 O 4.7 -0.343 -15.793 0
M  V30 3174 H 5.27 -0.176 -15.042 0
M  V30 3175 H 4.991 -1.19 -16.131 0
M  V30 3176 O 7.716 -9.718 11.111 0
M  V30 3177 H 7.448 -10.248 11.862 0
M  V30 3178 H 6.919 -9.617 10.592 0
M  V30 3179 O 15.78 8.584 -10.526 0
M  V30 3180 H 16.153 8.26 -9.706 0
M  V30 3181 H 16.532 8.676 -11.111 0
M  V30 3182 O 11.514 -14.639 0.643 0
M  V30 3183 H 11.2 -15.465 1.01 0
M  V30 3184 H 12.331 -14.869 0.2 0
M  V30 3185 O 8.209 10.198 16.317 0
M  V30 3186 H 8.535 10.911 15.768 0
M  V30 3187 H 8.938 9.996 16.904 0
M  V30 3188 O -1.973 -2.393 -9.533 0
M  V30 3189 H -2.394 -2.713 -8.735 0
M  V30 3190 H -2.378 -2.898 -10.238 0
M  V30 3191 O 11.115 16.815 -0.521 0
M  V30 3192 H 11.203 17.057 -1.443 0
M  V30 3193 H 10.17 16.777 -0.373 0
M  V30 3194 O 1.335 11.268 1.481 0
M  V30 3195 H 1.148 11.988 2.083 0
M  V30 3196 H 1.645 11.696 0.683 0
M  V30 3197 O 12.086 2.115 -12.957 0
M  V30 3198 H 12.998 1.952 -12.717 0
M  V30 3199 H 11.977 3.061 -12.858 0
M  V30 3200 O -7.875 -6.938 0.429 0
M  V30 3201 H -8.023 -7.875 0.558 0
M  V30 3202 H -8.713 -6.531 0.65 0
M  V30 3203 O -5.56 -13.868 10.482 0
M  V30 3204 H -4.878 -14.096 9.849 0
M  V30 3205 H -5.295 -14.309 11.289 0
M  V30 3206 O 4.275 1.112 3.213 0
M  V30 3207 H 4.011 2.032 3.196 0
M  V30 3208 H 4.731 0.978 2.382 0
M  V30 3209 O -7.256 1.896 -15.327 0
M  V30 3210 H -7.328 1.989 -16.277 0
M  V30 3211 H -8.162 1.869 -15.019 0
M  V30 3212 O 8.931 -0.189 -12.693 0
M  V30 3213 H 9.201 -0.599 -11.871 0
M  V30 3214 H 8.497 -0.89 -13.179 0
M  V30 3215 O -11.173 12.112 -7.513 0
M  V30 3216 H -10.655 12.319 -6.735 0
M  V30 3217 H -10.89 12.751 -8.166 0
M  V30 3218 O -10.798 2.974 -3.346 0
M  V30 3219 H -10.732 2.142 -2.876 0
M  V30 3220 H -10.112 2.928 -4.012 0
M  V30 3221 O -14.734 11.383 -11.767 0
M  V30 3222 H -15.295 11.033 -11.074 0
M  V30 3223 H -13.942 10.848 -11.727 0
M  V30 3224 O -2.125 -8.556 -11.558 0
M  V30 3225 H -1.644 -7.743 -11.713 0
M  V30 3226 H -2.093 -9.017 -12.396 0
M  V30 3227 O -9.229 2.507 11.226 0
M  V30 3228 H -9.324 3.452 11.105 0
M  V30 3229 H -8.295 2.379 11.392 0
M  V30 3230 O 7.984 6.786 2.191 0
M  V30 3231 H 7.505 6.937 1.376 0
M  V30 3232 H 8.827 7.219 2.058 0
M  V30 3233 O -11.076 -14.799 -9.239 0
M  V30 3234 H -10.6 -15.533 -9.626 0
M  V30 3235 H -11.207 -14.188 -9.965 0
M  V30 3236 O 13.352 -14.63 5.13 0
M  V30 3237 H 13.92 -13.998 4.688 0
M  V30 3238 H 12.64 -14.102 5.489 0
M  V30 3239 O -16.712 -8.054 -4.689 0
M  V30 3240 H -15.764 -7.945 -4.757 0
M  V30 3241 H -16.827 -8.92 -4.296 0
M  V30 3242 O 14.162 -5.17 6.236 0
M  V30 3243 H 14.152 -6.088 5.966 0
M  V30 3244 H 13.971 -5.194 7.174 0
M  V30 3245 O 4.467 2.036 5.781 0
M  V30 3246 H 3.745 2.617 5.543 0
M  V30 3247 H 4.598 1.485 5.009 0
M  V30 3248 O -15.25 -9.759 -1.198 0
M  V30 3249 H -15.516 -9.97 -2.093 0
M  V30 3250 H -15.854 -10.255 -0.645 0
M  V30 3251 O 8.335 -0.568 13.401 0
M  V30 3252 H 8.092 -1.178 12.704 0
M  V30 3253 H 7.505 -0.18 13.679 0
M  V30 3254 O 0.46 7.531 -0.742 0
M  V30 3255 H 0.888 8.053 -0.063 0
M  V30 3256 H 0.99 6.736 -0.803 0
M  V30 3257 O -11.464 -12.901 -11.165 0
M  V30 3258 H -11.283 -13.071 -12.089 0
M  V30 3259 H -10.866 -12.191 -10.929 0
M  V30 3260 O 6.973 15.853 11.317 0
M  V30 3261 H 6.536 16.022 10.482 0
M  V30 3262 H 6.63 16.525 11.907 0
M  V30 3263 O -17.023 -1.998 -10.626 0
M  V30 3264 H -17.397 -2.86 -10.811 0
M  V30 3265 H -16.213 -1.974 -11.136 0
M  V30 3266 O 12.776 11.972 -12.643 0
M  V30 3267 H 12.93 11.32 -13.327 0
M  V30 3268 H 13.498 11.849 -12.027 0
M  V30 3269 O -13.178 6.946 10.124 0
M  V30 3270 H -13.434 7.038 9.206 0
M  V30 3271 H -12.859 6.047 10.196 0
M  V30 3272 O 15.372 0.805 -8.156 0
M  V30 3273 H 16.306 0.902 -8.344 0
M  V30 3274 H 14.94 0.966 -8.995 0
M  V30 3275 O 2.313 16.598 11.631 0
M  V30 3276 H 1.616 17.092 11.199 0
M  V30 3277 H 2.032 16.536 12.545 0
M  V30 3278 O 16.583 -6.063 1.194 0
M  V30 3279 H 15.94 -5.839 0.522 0
M  V30 3280 H 17.294 -6.488 0.715 0
M  V30 3281 O 0.952 -5.138 -6.086 0
M  V30 3282 H 0.137 -5.1 -5.586 0
M  V30 3283 H 0.677 -5.345 -6.979 0
M  V30 3284 O 14.237 -14.74 10.215 0
M  V30 3285 H 14.46 -14.354 11.061 0
M  V30 3286 H 13.928 -14.003 9.688 0
M  V30 3287 O -4.696 -1.911 -14.555 0
M  V30 3288 H -3.756 -2.06 -14.659 0
M  V30 3289 H -4.864 -2.074 -13.627 0
M  V30 3290 O 12.688 5.218 -9.493 0
M  V30 3291 H 11.865 5.354 -9.963 0
M  V30 3292 H 13.069 4.439 -9.897 0
M  V30 3293 O -7.894 -2.002 -14.048 0
M  V30 3294 H -8.31 -1.288 -13.565 0
M  V30 3295 H -8.121 -1.838 -14.963 0
M  V30 3296 O 9.109 -10.183 1.685 0
M  V30 3297 H 9.893 -9.665 1.866 0
M  V30 3298 H 9.391 -11.091 1.796 0
M  V30 3299 O 8.671 12.441 15.044 0
M  V30 3300 H 7.997 12.966 15.474 0
M  V30 3301 H 9.155 13.066 14.504 0
M  V30 3302 O 12.516 -16.677 11.436 0
M  V30 3303 H 12.164 -17.148 10.681 0
M  V30 3304 H 13.006 -15.948 11.057 0
M  V30 3305 O 13.681 -3.374 -9.289 0
M  V30 3306 H 14.488 -2.93 -9.028 0
M  V30 3307 H 12.99 -2.73 -9.128 0
M  V30 3308 O -3.72 -14.521 -9.339 0
M  V30 3309 H -4.629 -14.335 -9.573 0
M  V30 3310 H -3.779 -15.202 -8.67 0
M  V30 3311 O 2.864 -3.036 -2.593 0
M  V30 3312 H 3.66 -2.906 -3.109 0
M  V30 3313 H 2.204 -2.499 -3.031 0
M  V30 3314 O 4.317 6.041 -9.722 0
M  V30 3315 H 4.174 6.68 -9.024 0
M  V30 3316 H 5.186 5.681 -9.544 0
M  V30 3317 O -1.751 -13.45 -1.933 0
M  V30 3318 H -0.974 -13.851 -2.325 0
M  V30 3319 H -1.598 -13.504 -0.99 0
M  V30 3320 O 8.473 -4.644 1.644 0
M  V30 3321 H 7.758 -4.199 2.099 0
M  V30 3322 H 8.659 -5.412 2.183 0
M  V30 3323 O -8.849 -12.32 -9.574 0
M  V30 3324 H -8.742 -11.381 -9.423 0
M  V30 3325 H -9.319 -12.635 -8.802 0
M  V30 3326 O 6.863 4.429 12.511 0
M  V30 3327 H 7.389 4.367 13.308 0
M  V30 3328 H 6.708 5.367 12.399 0
M  V30 3329 O -9.414 5.197 10.923 0
M  V30 3330 H -8.559 5.621 10.859 0
M  V30 3331 H -9.931 5.782 11.477 0
M  V30 3332 O 3.941 -14.388 3.755 0
M  V30 3333 H 3.685 -14.509 4.67 0
M  V30 3334 H 3.261 -14.838 3.255 0
M  V30 3335 O -12.22 13.629 8.379 0
M  V30 3336 H -12.094 12.686 8.279 0
M  V30 3337 H -12.718 13.888 7.604 0
M  V30 3338 O 15.64 13.12 -3.047 0
M  V30 3339 H 16.361 12.539 -2.803 0
M  V30 3340 H 15.164 13.268 -2.229 0
M  V30 3341 O 3.797 9.849 13.94 0
M  V30 3342 H 4.041 10.407 14.678 0
M  V30 3343 H 3.968 10.386 13.166 0
M  V30 3344 O 14.777 -8.127 -3.431 0
M  V30 3345 H 14.793 -7.671 -4.273 0
M  V30 3346 H 15.624 -8.571 -3.384 0
M  V30 3347 O -11.271 8.656 -4.086 0
M  V30 3348 H -10.8 8.646 -3.252 0
M  V30 3349 H -10.71 8.162 -4.684 0
M  V30 3350 O -5.686 -0.029 -11.746 0
M  V30 3351 H -5.417 0.502 -12.495 0
M  V30 3352 H -4.877 -0.177 -11.254 0
M  V30 3353 O -12.802 15.455 -8.603 0
M  V30 3354 H -12.244 15.67 -9.351 0
M  V30 3355 H -13.061 16.304 -8.244 0
M  V30 3356 O -12.087 2.196 -11.435 0
M  V30 3357 H -11.678 1.366 -11.677 0
M  V30 3358 H -11.5 2.571 -10.779 0
M  V30 3359 O -16.445 -1.245 -2.484 0
M  V30 3360 H -16.882 -0.614 -3.055 0
M  V30 3361 H -15.76 -1.63 -3.031 0
M  V30 3362 O 12.96 11.103 5.04 0
M  V30 3363 H 12.771 10.927 5.962 0
M  V30 3364 H 12.261 11.694 4.76 0
M  V30 3365 O -1.256 4.968 -2.955 0
M  V30 3366 H -1.338 4.296 -2.278 0
M  V30 3367 H -2.017 5.534 -2.825 0
M  V30 3368 O 4.989 1.603 0.495 0
M  V30 3369 H 4.556 1.349 -0.319 0
M  V30 3370 H 5.87 1.235 0.423 0
M  V30 3371 O -14.629 7.158 2.521 0
M  V30 3372 H -14.504 6.549 3.249 0
M  V30 3373 H -15.296 7.77 2.833 0
M  V30 3374 O -12.771 7.548 -10.147 0
M  V30 3375 H -12.901 7.582 -9.199 0
M  V30 3376 H -12.358 8.384 -10.362 0
M  V30 3377 O 1.899 -7.094 0.719 0
M  V30 3378 H 2.603 -7.739 0.645 0
M  V30 3379 H 1.137 -7.525 0.333 0
M  V30 3380 O 0.523 -6.226 -14.415 0
M  V30 3381 H 0.478 -5.755 -15.247 0
M  V30 3382 H 0.971 -7.045 -14.627 0
M  V30 3383 O 3.394 -6.19 -15.575 0
M  V30 3384 H 3.103 -7.089 -15.425 0
M  V30 3385 H 3.213 -6.031 -16.501 0
M  V30 3386 O 3.998 1.965 10.7 0
M  V30 3387 H 3.298 2.617 10.727 0
M  V30 3388 H 3.735 1.36 10.006 0
M  V30 3389 O -14.653 2.531 11.776 0
M  V30 3390 H -15.362 2.999 11.335 0
M  V30 3391 H -14.99 2.358 12.655 0
M  V30 3392 O 12.429 -12.474 -16.375 0
M  V30 3393 H 11.963 -12.317 -15.554 0
M  V30 3394 H 13.296 -12.095 -16.235 0
M  V30 3395 O -15.575 -12.501 11.766 0
M  V30 3396 H -16.413 -12.675 12.194 0
M  V30 3397 H -15.511 -13.167 11.082 0
M  V30 3398 O 16.784 -10.459 -3.274 0
M  V30 3399 H 17.188 -11.233 -3.666 0
M  V30 3400 H 16.333 -10.79 -2.497 0
M  V30 3401 O 5.325 12.545 -2.201 0
M  V30 3402 H 4.689 12.352 -2.889 0
M  V30 3403 H 4.796 12.68 -1.415 0
M  V30 3404 O 13.925 -10.34 6.324 0
M  V30 3405 H 14.244 -9.439 6.374 0
M  V30 3406 H 14.364 -10.708 5.558 0
M  V30 3407 O 15.225 14.444 12.439 0
M  V30 3408 H 15.384 15.233 11.921 0
M  V30 3409 H 16.083 14.025 12.508 0
M  V30 3410 O -14.819 5.259 -14.623 0
M  V30 3411 H -14.581 6.017 -15.157 0
M  V30 3412 H -15.502 4.816 -15.126 0
M  V30 3413 O 5.659 14.35 -15.185 0
M  V30 3414 H 5.288 15.025 -14.616 0
M  V30 3415 H 5.56 13.537 -14.688 0
M  V30 3416 O 12.537 14.823 -12.445 0
M  V30 3417 H 12.845 13.961 -12.724 0
M  V30 3418 H 13.327 15.277 -12.153 0
M  V30 3419 O 2.409 13.061 -2.843 0
M  V30 3420 H 2.878 13.705 -3.375 0
M  V30 3421 H 1.903 12.551 -3.475 0
M  V30 3422 O -7.201 12.549 8.596 0
M  V30 3423 H -7.803 12.284 9.291 0
M  V30 3424 H -6.667 13.238 8.991 0
M  V30 3425 O 15.22 -13.714 -14.897 0
M  V30 3426 H 15.045 -14.355 -15.586 0
M  V30 3427 H 15.448 -12.912 -15.368 0
M  V30 3428 O 9.559 -16.814 -3.321 0
M  V30 3429 H 8.822 -16.265 -3.588 0
M  V30 3430 H 9.193 -17.407 -2.666 0
M  V30 3431 O -0.879 -8.585 5.316 0
M  V30 3432 H -0.817 -7.857 4.699 0
M  V30 3433 H 0.01 -8.688 5.656 0
M  V30 3434 O -16.519 -4.799 -4.79 0
M  V30 3435 H -16.898 -5.56 -5.23 0
M  V30 3436 H -15.858 -5.167 -4.203 0
M  V30 3437 O 12.606 1.677 12.218 0
M  V30 3438 H 11.793 1.902 12.67 0
M  V30 3439 H 12.326 1.398 11.346 0
M  V30 3440 O -7.867 5.18 -3.365 0
M  V30 3441 H -8.137 4.265 -3.283 0
M  V30 3442 H -7.561 5.26 -4.268 0
M  V30 3443 O 9.751 -7.201 -9.16 0
M  V30 3444 H 10.665 -7.443 -9.012 0
M  V30 3445 H 9.661 -7.174 -10.113 0
M  V30 3446 O -1.736 -1.932 -4.721 0
M  V30 3447 H -2.015 -2.841 -4.832 0
M  V30 3448 H -1.731 -1.573 -5.609 0
M  V30 3449 O -15.474 -9.204 -16.193 0
M  V30 3450 H -15.62 -9.886 -16.848 0
M  V30 3451 H -15.648 -9.635 -15.356 0
M  V30 3452 O -9.988 12.897 -10.008 0
M  V30 3453 H -9.486 12.82 -10.819 0
M  V30 3454 H -10.444 13.735 -10.086 0
M  V30 3455 O -10.717 -11.911 12.425 0
M  V30 3456 H -10.09 -11.322 12.844 0
M  V30 3457 H -10.4 -12.789 12.638 0
M  V30 3458 O 6.778 10.158 -8.141 0
M  V30 3459 H 7.356 10.907 -7.994 0
M  V30 3460 H 7.354 9.474 -8.481 0
M  V30 3461 O -2.198 14.339 5.198 0
M  V30 3462 H -2.223 14.008 4.3 0
M  V30 3463 H -3.021 14.041 5.586 0
M  V30 3464 O 9.709 -11.809 -15.312 0
M  V30 3465 H 9.914 -11.394 -16.149 0
M  V30 3466 H 9.107 -11.2 -14.884 0
M  V30 3467 O 8.449 -4.801 -13.284 0
M  V30 3468 H 7.508 -4.965 -13.334 0
M  V30 3469 H 8.55 -3.892 -13.566 0
M  V30 3470 O -10.775 11.349 8.339 0
M  V30 3471 H -10.643 10.924 7.492 0
M  V30 3472 H -11.182 10.677 8.885 0
M  V30 3473 O 14.612 12.593 -10.36 0
M  V30 3474 H 14.024 11.897 -10.065 0
M  V30 3475 H 14.572 13.251 -9.666 0
M  V30 3476 O 9.242 -12.923 3.194 0
M  V30 3477 H 9.649 -13.616 2.673 0
M  V30 3478 H 8.974 -13.357 4.004 0
M  V30 3479 O -11.278 -5.659 -5.804 0
M  V30 3480 H -11.222 -4.724 -5.608 0
M  V30 3481 H -10.902 -5.744 -6.68 0
M  V30 3482 O 7.398 4.558 -9.858 0
M  V30 3483 H 7.449 5.257 -9.206 0
M  V30 3484 H 7.62 4.986 -10.685 0
M  V30 3485 O 13.736 -5.919 -7.471 0
M  V30 3486 H 14.08 -5.647 -6.62 0
M  V30 3487 H 13.696 -5.111 -7.982 0
M  V30 3488 O -6.611 -13.66 16.204 0
M  V30 3489 H -6.506 -13.683 15.253 0
M  V30 3490 H -6.27 -12.804 16.463 0
M  V30 3491 O -9.791 11.326 14.752 0
M  V30 3492 H -9.461 11.398 15.648 0
M  V30 3493 H -9.679 10.402 14.528 0
M  V30 3494 O -8.778 7.653 -2.924 0
M  V30 3495 H -8.542 6.731 -2.819 0
M  V30 3496 H -9.04 7.731 -3.842 0
M  V30 3497 O 0.44 9.749 9.915 0
M  V30 3498 H 1.358 9.878 9.679 0
M  V30 3499 H -0.029 9.775 9.08 0
M  V30 3500 O 2.11 -9.08 7.417 0
M  V30 3501 H 2.298 -8.716 6.552 0
M  V30 3502 H 2.812 -9.713 7.569 0
M  V30 3503 O 4.416 9.228 5.917 0
M  V30 3504 H 4.65 10.114 5.639 0
M  V30 3505 H 4.332 9.289 6.868 0
M  V30 3506 O 6.814 14.321 -0.095 0
M  V30 3507 H 7.057 14.127 0.81 0
M  V30 3508 H 5.91 14.015 -0.172 0
M  V30 3509 O -5.561 14.782 10.21 0
M  V30 3510 H -5.885 15.638 10.491 0
M  V30 3511 H -5.309 14.91 9.295 0
M  V30 3512 O 6.616 -11.195 13.129 0
M  V30 3513 H 5.945 -10.926 13.757 0
M  V30 3514 H 6.847 -12.086 13.391 0
M  V30 3515 O 13.727 3.052 -16.504 0
M  V30 3516 H 13.918 2.115 -16.468 0
M  V30 3517 H 13.037 3.182 -15.854 0
M  V30 3518 O 14.047 -14.233 13.074 0
M  V30 3519 H 13.872 -15.133 13.349 0
M  V30 3520 H 14.922 -14.044 13.412 0
M  V30 3521 O 12.012 -12.194 13.439 0
M  V30 3522 H 12.246 -13.121 13.489 0
M  V30 3523 H 12.786 -11.771 13.067 0
M  V30 3524 O 3.33 -14.145 11.817 0
M  V30 3525 H 4.042 -13.706 11.351 0
M  V30 3526 H 2.532 -13.807 11.41 0
M  V30 3527 O 12.731 14.63 11.926 0
M  V30 3528 H 12.765 15.54 11.631 0
M  V30 3529 H 13.614 14.451 12.25 0
M  V30 3530 O -12.362 -9.47 9.953 0
M  V30 3531 H -13.147 -9.396 10.496 0
M  V30 3532 H -12.301 -10.402 9.745 0
M  V30 3533 O 5.167 -2.213 -3.711 0
M  V30 3534 H 4.83 -1.511 -3.154 0
M  V30 3535 H 5.757 -1.773 -4.322 0
M  V30 3536 O 2.952 -13.039 -15.318 0
M  V30 3537 H 3.309 -12.156 -15.229 0
M  V30 3538 H 3.234 -13.494 -14.524 0
M  V30 3539 O 5.665 -1.799 -0.139 0
M  V30 3540 H 5.529 -1.58 0.783 0
M  V30 3541 H 6.318 -1.167 -0.442 0
M  V30 3542 O -8.176 11.106 -0.05 0
M  V30 3543 H -7.633 10.412 0.324 0
M  V30 3544 H -7.83 11.231 -0.934 0
M  V30 3545 O 12.685 -4.716 12.504 0
M  V30 3546 H 13.242 -4.603 13.274 0
M  V30 3547 H 12.874 -3.953 11.958 0
M  V30 3548 O 0.805 -14.279 -11.117 0
M  V30 3549 H 0.917 -14.017 -10.203 0
M  V30 3550 H -0.141 -14.25 -11.262 0
M  V30 3551 O 3.507 8.824 -1.247 0
M  V30 3552 H 2.661 9.085 -0.883 0
M  V30 3553 H 3.389 8.881 -2.195 0
M  V30 3554 O -15.509 -15.997 11.495 0
M  V30 3555 H -15.351 -16.401 10.642 0
M  V30 3556 H -16.141 -16.575 11.922 0
M  V30 3557 O -6.113 -3.751 -12.7 0
M  V30 3558 H -6.768 -3.283 -13.218 0
M  V30 3559 H -6.242 -4.673 -12.926 0
M  V30 3560 O -0.704 -11.755 -5.533 0
M  V30 3561 H -0.175 -11.751 -6.33 0
M  V30 3562 H -0.841 -10.829 -5.331 0
M  V30 3563 O 0.061 -3.337 1.297 0
M  V30 3564 H -0.111 -3.743 2.147 0
M  V30 3565 H -0.791 -3.007 1.012 0
M  V30 3566 O -16.423 -11.044 0.898 0
M  V30 3567 H -15.836 -10.921 1.643 0
M  V30 3568 H -17.245 -11.343 1.286 0
M  V30 3569 O -6.877 -8.403 5.969 0
M  V30 3570 H -7.428 -8.665 5.232 0
M  V30 3571 H -7.471 -7.945 6.563 0
M  V30 3572 O 5.24 -8.628 -14.622 0
M  V30 3573 H 4.893 -8.263 -13.808 0
M  V30 3574 H 5.836 -7.956 -14.951 0
M  V30 3575 O -8.362 -3.808 -6.883 0
M  V30 3576 H -8.812 -4.407 -7.479 0
M  V30 3577 H -8.837 -3.89 -6.056 0
M  V30 3578 O 14.175 10.654 -15.24 0
M  V30 3579 H 14.104 10.195 -14.403 0
M  V30 3580 H 14.915 11.249 -15.126 0
M  V30 3581 O -9.794 16.756 -9.15 0
M  V30 3582 H -8.86 16.58 -9.264 0
M  V30 3583 H -10.185 16.528 -9.994 0
M  V30 3584 O -10.541 -0.304 -10.948 0
M  V30 3585 H -10.204 -0.612 -10.106 0
M  V30 3586 H -9.76 -0.165 -11.483 0
M  V30 3587 O -11.519 -2.906 -5.531 0
M  V30 3588 H -10.978 -2.165 -5.257 0
M  V30 3589 H -12.36 -2.515 -5.767 0
M  V30 3590 O -15.866 -14.222 -12.268 0
M  V30 3591 H -16.709 -13.945 -11.91 0
M  V30 3592 H -15.847 -15.17 -12.131 0
M  V30 3593 O -12.659 -8.741 -16.297 0
M  V30 3594 H -12.48 -7.804 -16.214 0
M  V30 3595 H -13.605 -8.793 -16.438 0
M  V30 3596 O -8.593 -13.176 1.547 0
M  V30 3597 H -8.944 -14.032 1.3 0
M  V30 3598 H -9.315 -12.743 2.003 0
M  V30 3599 O 2.216 -7.799 4.728 0
M  V30 3600 H 2.317 -7.15 5.424 0
M  V30 3601 H 2.912 -7.593 4.105 0
M  V30 3602 O -8.832 -14.424 -15.691 0
M  V30 3603 H -8.491 -14.91 -14.94 0
M  V30 3604 H -8.053 -14.096 -16.139 0
M  V30 3605 O -13.454 13.934 5.758 0
M  V30 3606 H -14.076 13.326 5.357 0
M  V30 3607 H -12.862 14.175 5.045 0
M  V30 3608 O 2.656 -8.853 -9.578 0
M  V30 3609 H 2.082 -8.542 -8.878 0
M  V30 3610 H 3.393 -9.259 -9.123 0
M  V30 3611 O 3.035 -5.127 14.828 0
M  V30 3612 H 3.348 -5.937 14.427 0
M  V30 3613 H 3.678 -4.467 14.568 0
M  V30 3614 O 9.934 2.39 -11.287 0
M  V30 3615 H 9.875 1.935 -10.446 0
M  V30 3616 H 10.61 1.915 -11.77 0
M  V30 3617 O -2.382 -2.425 3.489 0
M  V30 3618 H -2.514 -2.214 2.565 0
M  V30 3619 H -2.728 -3.313 3.584 0
M  V30 3620 O 13.678 15.763 -7.68 0
M  V30 3621 H 14.232 15.019 -7.917 0
M  V30 3622 H 12.802 15.513 -7.972 0
M  V30 3623 O 6.831 6.492 -7.784 0
M  V30 3624 H 7.711 6.213 -7.53 0
M  V30 3625 H 6.368 6.609 -6.954 0
M  V30 3626 O -6.089 -3.341 -5.496 0
M  V30 3627 H -6.58 -3.032 -4.735 0
M  V30 3628 H -6.761 -3.628 -6.115 0
M  V30 3629 O 15.637 -8.688 2.512 0
M  V30 3630 H 16.409 -8.351 2.056 0
M  V30 3631 H 15.491 -9.552 2.127 0
M  V30 3632 O 9.197 -8.035 -11.832 0
M  V30 3633 H 8.542 -8.733 -11.837 0
M  V30 3634 H 8.876 -7.4 -12.472 0
M  V30 3635 O -4.716 9.092 -3.766 0
M  V30 3636 H -4.136 9.853 -3.788 0
M  V30 3637 H -5.587 9.449 -3.941 0
M  V30 3638 O -16.385 8.488 -1.163 0
M  V30 3639 H -16.995 8.077 -0.55 0
M  V30 3640 H -15.565 8.01 -1.04 0
M  V30 3641 O 6.622 16.422 4.021 0
M  V30 3642 H 6.47 17.227 3.525 0
M  V30 3643 H 5.857 16.343 4.59 0
M  V30 3644 O -4.031 -3.466 11.999 0
M  V30 3645 H -4.048 -3.147 12.902 0
M  V30 3646 H -4.809 -4.019 11.926 0
M  V30 3647 O 13.064 4.878 5.515 0
M  V30 3648 H 13.544 4.524 6.263 0
M  V30 3649 H 12.628 4.118 5.128 0
M  V30 3650 O 8.394 12.727 -14.395 0
M  V30 3651 H 8.026 11.911 -14.055 0
M  V30 3652 H 9.186 12.458 -14.861 0
M  V30 3653 O -13.906 -13.041 1.952 0
M  V30 3654 H -13.383 -13.832 1.822 0
M  V30 3655 H -13.267 -12.363 2.169 0
M  V30 3656 O 1.406 -16.523 -5.521 0
M  V30 3657 H 0.672 -16.183 -6.033 0
M  V30 3658 H 1.949 -16.986 -6.158 0
M  V30 3659 O 13.587 1.191 -0.884 0
M  V30 3660 H 14.114 1.775 -1.429 0
M  V30 3661 H 13.738 0.32 -1.25 0
M  V30 3662 O 10.558 -12.907 9.991 0
M  V30 3663 H 11.241 -12.894 9.321 0
M  V30 3664 H 10.926 -12.405 10.718 0
M  V30 3665 O 12.255 -2.023 11.291 0
M  V30 3666 H 12.454 -1.454 10.547 0
M  V30 3667 H 11.746 -2.741 10.915 0
M  V30 3668 O 15.394 -13.831 -5.786 0
M  V30 3669 H 15.312 -14.549 -6.414 0
M  V30 3670 H 15.649 -14.257 -4.967 0
M  V30 3671 O 8.478 16.954 -12.219 0
M  V30 3672 H 8.763 17.031 -13.13 0
M  V30 3673 H 7.748 16.335 -12.248 0
M  V30 3674 O -1.32 13.615 -2.464 0
M  V30 3675 H -0.749 14.328 -2.177 0
M  V30 3676 H -2.089 13.679 -1.897 0
M  V30 3677 O 3.365 -5.383 -1.362 0
M  V30 3678 H 3.107 -4.605 -1.857 0
M  V30 3679 H 2.571 -5.646 -0.897 0
M  V30 3680 O 13.751 10.421 13.869 0
M  V30 3681 H 13.793 9.949 14.7 0
M  V30 3682 H 12.903 10.177 13.497 0
M  V30 3683 O 3.471 13.646 16.048 0
M  V30 3684 H 3.84 13.089 16.733 0
M  V30 3685 H 4.034 14.42 16.038 0
M  V30 3686 O -10.276 -6.282 4.933 0
M  V30 3687 H -9.508 -5.945 4.471 0
M  V30 3688 H -10.709 -6.85 4.296 0
M  V30 3689 O 5.493 -4.669 9.949 0
M  V30 3690 H 4.934 -5.19 10.525 0
M  V30 3691 H 4.958 -3.91 9.717 0
M  V30 3692 O -13.17 -16.014 15.975 0
M  V30 3693 H -13.13 -15.106 16.276 0
M  V30 3694 H -13.253 -15.947 15.024 0
M  V30 3695 O -9.132 13.562 6.893 0
M  V30 3696 H -9.918 13.087 7.161 0
M  V30 3697 H -8.414 13.102 7.327 0
M  V30 3698 O 9.426 -10.524 -3.115 0
M  V30 3699 H 8.557 -10.124 -3.087 0
M  V30 3700 H 9.763 -10.305 -3.983 0
M  V30 3701 O -14.354 -4.616 10.408 0
M  V30 3702 H -14.635 -5.476 10.721 0
M  V30 3703 H -13.433 -4.557 10.665 0
M  V30 3704 O 11.523 -1.407 5.554 0
M  V30 3705 H 11.003 -0.691 5.917 0
M  V30 3706 H 12.132 -0.979 4.952 0
M  V30 3707 O -0.624 12.836 8.509 0
M  V30 3708 H -0.524 12.336 9.319 0
M  V30 3709 H -1.366 12.425 8.064 0
M  V30 3710 O 10.016 11.013 6.906 0
M  V30 3711 H 9.618 11.854 6.683 0
M  V30 3712 H 10.751 11.238 7.477 0
M  V30 3713 O -3.358 -10.321 4.606 0
M  V30 3714 H -3.44 -10.808 5.427 0
M  V30 3715 H -2.672 -9.676 4.778 0
M  V30 3716 O -17.308 -0.228 -0.021 0
M  V30 3717 H -16.687 0.442 0.263 0
M  V30 3718 H -16.961 -0.537 -0.858 0
M  V30 3719 O -9.833 -8.679 -1.4 0
M  V30 3720 H -9.522 -8.718 -0.495 0
M  V30 3721 H -10.729 -9.013 -1.36 0
M  V30 3722 O -4.994 10.443 -15.915 0
M  V30 3723 H -4.156 10.143 -15.564 0
M  V30 3724 H -5.268 11.141 -15.32 0
M  V30 3725 O -1.824 -1.249 -13.022 0
M  V30 3726 H -1.986 -1.222 -13.965 0
M  V30 3727 H -0.965 -1.663 -12.938 0
M  V30 3728 O -8.103 2.882 -7.62 0
M  V30 3729 H -7.315 3.397 -7.444 0
M  V30 3730 H -7.878 2.354 -8.386 0
M  V30 3731 O 14.794 -5.423 3.127 0
M  V30 3732 H 15.396 -5.963 2.614 0
M  V30 3733 H 15.146 -5.451 4.017 0
M  V30 3734 O 14.448 -10.411 10.888 0
M  V30 3735 H 15.006 -10.619 11.638 0
M  V30 3736 H 14.194 -9.498 11.023 0
M  V30 3737 O -16.36 -6.935 13.691 0
M  V30 3738 H -15.915 -7.608 13.177 0
M  V30 3739 H -15.767 -6.757 14.421 0
M  V30 3740 O 15.391 11.603 -5.576 0
M  V30 3741 H 15.545 12.205 -4.848 0
M  V30 3742 H 14.863 10.9 -5.198 0
M  V30 END ATOM
M  V30 BEGIN BOND
M  V30 1 1 5 1
M  V30 2 1 2 1
M  V30 3 1 4 1
M  V30 4 1 1 3
M  V30 5 1 26 6
M  V30 6 1 6 18
M  V30 7 1 6 7
M  V30 8 1 6 72
M  V30 9 1 8 7
M  V30 10 1 73 7
M  V30 11 1 7 19
M  V30 12 1 20 8
M  V30 13 1 8 9
M  V30 14 1 8 74
M  V30 15 1 22 9
M  V30 16 1 10 9
M  V30 17 1 9 75
M  V30 18 1 76 10
M  V30 19 1 10 11
M  V30 20 1 10 18
M  V30 21 1 21 11
M  V30 22 1 78 11
M  V30 23 1 11 77
M  V30 24 1 13 12
M  V30 25 1 22 12
M  V30 26 1 12 79
M  V30 27 1 12 23
M  V30 28 1 80 13
M  V30 29 1 24 13
M  V30 30 1 13 14
M  V30 31 1 25 14
M  V30 32 1 15 14
M  V30 33 1 14 81
M  V30 34 1 55 15
M  V30 35 1 15 82
M  V30 36 1 15 16
M  V30 37 1 83 16
M  V30 38 1 16 23
M  V30 39 1 16 17
M  V30 40 1 85 17
M  V30 41 1 17 27
M  V30 42 1 17 84
M  V30 43 1 19 86
M  V30 44 1 87 20
M  V30 45 1 21 88
M  V30 46 1 89 24
M  V30 47 1 25 90
M  V30 48 1 28 26
M  V30 49 1 27 91
M  V30 50 1 29 28
M  V30 51 1 67 28
M  V30 52 1 28 92
M  V30 53 1 30 29
M  V30 54 1 93 29
M  V30 55 1 29 71
M  V30 56 1 70 30
M  V30 57 1 31 30
M  V30 58 1 30 94
M  V30 59 1 95 31
M  V30 60 1 32 31
M  V30 61 1 31 66
M  V30 62 1 33 32
M  V30 63 1 34 33
M  V30 64 1 33 38
M  V30 65 1 33 96
M  V30 66 1 35 34
M  V30 67 1 65 34
M  V30 68 1 97 34
M  V30 69 1 98 35
M  V30 70 1 35 36
M  V30 71 1 35 64
M  V30 72 1 41 36
M  V30 73 1 99 36
M  V30 74 1 36 37
M  V30 75 1 37 38
M  V30 76 1 100 38
M  V30 77 1 38 39
M  V30 78 1 39 40
M  V30 79 1 39 101
M  V30 80 1 39 102
M  V30 81 1 40 103
M  V30 82 1 42 41
M  V30 83 1 43 42
M  V30 84 1 104 42
M  V30 85 1 42 59
M  V30 86 1 63 43
M  V30 87 1 105 43
M  V30 88 1 43 44
M  V30 89 1 62 44
M  V30 90 1 44 106
M  V30 91 1 44 45
M  V30 92 1 107 45
M  V30 93 1 45 58
M  V30 94 1 45 46
M  V30 95 1 46 47
M  V30 96 1 108 47
M  V30 97 1 48 47
M  V30 98 1 47 52
M  V30 99 1 109 48
M  V30 100 1 48 57
M  V30 101 1 48 49
M  V30 102 1 56 49
M  V30 103 1 110 49
M  V30 104 1 49 50
M  V30 105 1 50 51
M  V30 106 1 50 55
M  V30 107 1 50 111
M  V30 108 1 52 51
M  V30 109 1 52 53
M  V30 110 1 52 112
M  V30 111 1 114 53
M  V30 112 1 113 53
M  V30 113 1 53 54
M  V30 114 1 54 115
M  V30 115 1 116 56
M  V30 116 1 57 117
M  V30 117 1 58 59
M  V30 118 1 59 60
M  V30 119 1 59 118
M  V30 120 1 61 60
M  V30 121 1 60 119
M  V30 122 1 60 120
M  V30 123 1 61 121
M  V30 124 1 122 62
M  V30 125 1 63 123
M  V30 126 1 64 124
M  V30 127 1 65 125
M  V30 128 1 66 67
M  V30 129 1 126 67
M  V30 130 1 67 68
M  V30 131 1 69 68
M  V30 132 1 68 127
M  V30 133 1 68 128
M  V30 134 1 129 69
M  V30 135 1 130 70
M  V30 136 1 71 131
M  V30 137 1 135 134
M  V30 138 1 134 136
M  V30 139 1 137 138
M  V30 140 1 137 139
M  V30 141 1 142 140
M  V30 142 1 140 141
M  V30 143 1 144 143
M  V30 144 1 143 145
M  V30 145 1 148 146
M  V30 146 1 146 147
M  V30 147 1 149 151
M  V30 148 1 149 150
M  V30 149 1 152 154
M  V30 150 1 152 153
M  V30 151 1 157 155
M  V30 152 1 156 155
M  V30 153 1 160 158
M  V30 154 1 159 158
M  V30 155 1 161 162
M  V30 156 1 161 163
M  V30 157 1 165 164
M  V30 158 1 164 166
M  V30 159 1 168 167
M  V30 160 1 167 169
M  V30 161 1 171 170
M  V30 162 1 170 172
M  V30 163 1 174 173
M  V30 164 1 173 175
M  V30 165 1 177 176
M  V30 166 1 178 176
M  V30 167 1 180 179
M  V30 168 1 179 181
M  V30 169 1 184 182
M  V30 170 1 182 183
M  V30 171 1 186 185
M  V30 172 1 185 187
M  V30 173 1 189 188
M  V30 174 1 188 190
M  V30 175 1 191 192
M  V30 176 1 191 193
M  V30 177 1 194 195
M  V30 178 1 194 196
M  V30 179 1 199 197
M  V30 180 1 198 197
M  V30 181 1 201 200
M  V30 182 1 202 200
M  V30 183 1 203 205
M  V30 184 1 203 204
M  V30 185 1 207 206
M  V30 186 1 208 206
M  V30 187 1 210 209
M  V30 188 1 209 211
M  V30 189 1 213 212
M  V30 190 1 212 214
M  V30 191 1 216 215
M  V30 192 1 217 215
M  V30 193 1 220 218
M  V30 194 1 218 219
M  V30 195 1 222 221
M  V30 196 1 223 221
M  V30 197 1 224 225
M  V30 198 1 224 226
M  V30 199 1 229 227
M  V30 200 1 228 227
M  V30 201 1 232 230
M  V30 202 1 231 230
M  V30 203 1 235 233
M  V30 204 1 233 234
M  V30 205 1 238 236
M  V30 206 1 236 237
M  V30 207 1 241 239
M  V30 208 1 240 239
M  V30 209 1 243 242
M  V30 210 1 244 242
M  V30 211 1 246 245
M  V30 212 1 245 247
M  V30 213 1 249 248
M  V30 214 1 248 250
M  V30 215 1 253 251
M  V30 216 1 251 252
M  V30 217 1 254 255
M  V30 218 1 254 256
M  V30 219 1 259 257
M  V30 220 1 257 258
M  V30 221 1 261 260
M  V30 222 1 260 262
M  V30 223 1 265 263
M  V30 224 1 263 264
M  V30 225 1 267 266
M  V30 226 1 268 266
M  V30 227 1 269 270
M  V30 228 1 269 271
M  V30 229 1 274 272
M  V30 230 1 273 272
M  V30 231 1 277 275
M  V30 232 1 275 276
M  V30 233 1 279 278
M  V30 234 1 278 280
M  V30 235 1 282 281
M  V30 236 1 283 281
M  V30 237 1 286 284
M  V30 238 1 284 285
M  V30 239 1 288 287
M  V30 240 1 287 289
M  V30 241 1 292 290
M  V30 242 1 290 291
M  V30 243 1 295 293
M  V30 244 1 293 294
M  V30 245 1 297 296
M  V30 246 1 296 298
M  V30 247 1 301 299
M  V30 248 1 300 299
M  V30 249 1 302 304
M  V30 250 1 302 303
M  V30 251 1 306 305
M  V30 252 1 307 305
M  V30 253 1 310 308
M  V30 254 1 308 309
M  V30 255 1 313 311
M  V30 256 1 311 312
M  V30 257 1 314 315
M  V30 258 1 314 316
M  V30 259 1 317 319
M  V30 260 1 317 318
M  V30 261 1 322 320
M  V30 262 1 320 321
M  V30 263 1 325 323
M  V30 264 1 323 324
M  V30 265 1 326 327
M  V30 266 1 326 328
M  V30 267 1 331 329
M  V30 268 1 329 330
M  V30 269 1 333 332
M  V30 270 1 332 334
M  V30 271 1 335 337
M  V30 272 1 335 336
M  V30 273 1 339 338
M  V30 274 1 340 338
M  V30 275 1 343 341
M  V30 276 1 341 342
M  V30 277 1 344 345
M  V30 278 1 344 346
M  V30 279 1 348 347
M  V30 280 1 347 349
M  V30 281 1 351 350
M  V30 282 1 350 352
M  V30 283 1 355 353
M  V30 284 1 354 353
M  V30 285 1 356 357
M  V30 286 1 356 358
M  V30 287 1 360 359
M  V30 288 1 359 361
M  V30 289 1 362 364
M  V30 290 1 362 363
M  V30 291 1 367 365
M  V30 292 1 365 366
M  V30 293 1 370 368
M  V30 294 1 368 369
M  V30 295 1 372 371
M  V30 296 1 371 373
M  V30 297 1 376 374
M  V30 298 1 374 375
M  V30 299 1 379 377
M  V30 300 1 377 378
M  V30 301 1 381 380
M  V30 302 1 380 382
M  V30 303 1 385 383
M  V30 304 1 383 384
M  V30 305 1 388 386
M  V30 306 1 386 387
M  V30 307 1 390 389
M  V30 308 1 389 391
M  V30 309 1 392 393
M  V30 310 1 392 394
M  V30 311 1 396 395
M  V30 312 1 395 397
M  V30 313 1 399 398
M  V30 314 1 400 398
M  V30 315 1 403 401
M  V30 316 1 401 402
M  V30 317 1 405 404
M  V30 318 1 404 406
M  V30 319 1 409 407
M  V30 320 1 407 408
M  V30 321 1 411 410
M  V30 322 1 410 412
M  V30 323 1 414 413
M  V30 324 1 415 413
M  V30 325 1 416 417
M  V30 326 1 416 418
M  V30 327 1 421 419
M  V30 328 1 419 420
M  V30 329 1 424 422
M  V30 330 1 422 423
M  V30 331 1 426 425
M  V30 332 1 425 427
M  V30 333 1 430 428
M  V30 334 1 428 429
M  V30 335 1 431 433
M  V30 336 1 431 432
M  V30 337 1 434 436
M  V30 338 1 434 435
M  V30 339 1 439 437
M  V30 340 1 437 438
M  V30 341 1 442 440
M  V30 342 1 440 441
M  V30 343 1 444 443
M  V30 344 1 445 443
M  V30 345 1 446 447
M  V30 346 1 446 448
M  V30 347 1 451 449
M  V30 348 1 450 449
M  V30 349 1 454 452
M  V30 350 1 452 453
M  V30 351 1 455 457
M  V30 352 1 455 456
M  V30 353 1 459 458
M  V30 354 1 458 460
M  V30 355 1 463 461
M  V30 356 1 462 461
M  V30 357 1 466 464
M  V30 358 1 465 464
M  V30 359 1 469 467
M  V30 360 1 467 468
M  V30 361 1 472 470
M  V30 362 1 470 471
M  V30 363 1 474 473
M  V30 364 1 473 475
M  V30 365 1 478 476
M  V30 366 1 476 477
M  V30 367 1 480 479
M  V30 368 1 479 481
M  V30 369 1 483 482
M  V30 370 1 482 484
M  V30 371 1 485 487
M  V30 372 1 485 486
M  V30 373 1 490 488
M  V30 374 1 488 489
M  V30 375 1 493 491
M  V30 376 1 492 491
M  V30 377 1 494 495
M  V30 378 1 494 496
M  V30 379 1 498 497
M  V30 380 1 497 499
M  V30 381 1 501 500
M  V30 382 1 500 502
M  V30 383 1 504 503
M  V30 384 1 503 505
M  V30 385 1 506 507
M  V30 386 1 506 508
M  V30 387 1 510 509
M  V30 388 1 509 511
M  V30 389 1 513 512
M  V30 390 1 512 514
M  V30 391 1 517 515
M  V30 392 1 515 516
M  V30 393 1 519 518
M  V30 394 1 518 520
M  V30 395 1 523 521
M  V30 396 1 521 522
M  V30 397 1 526 524
M  V30 398 1 524 525
M  V30 399 1 529 527
M  V30 400 1 527 528
M  V30 401 1 531 530
M  V30 402 1 530 532
M  V30 403 1 535 533
M  V30 404 1 533 534
M  V30 405 1 536 538
M  V30 406 1 536 537
M  V30 407 1 541 539
M  V30 408 1 540 539
M  V30 409 1 542 544
M  V30 410 1 542 543
M  V30 411 1 546 545
M  V30 412 1 545 547
M  V30 413 1 549 548
M  V30 414 1 550 548
M  V30 415 1 551 552
M  V30 416 1 551 553
M  V30 417 1 556 554
M  V30 418 1 555 554
M  V30 419 1 557 559
M  V30 420 1 557 558
M  V30 421 1 560 561
M  V30 422 1 560 562
M  V30 423 1 565 563
M  V30 424 1 564 563
M  V30 425 1 566 568
M  V30 426 1 566 567
M  V30 427 1 569 570
M  V30 428 1 569 571
M  V30 429 1 572 573
M  V30 430 1 572 574
M  V30 431 1 577 575
M  V30 432 1 575 576
M  V30 433 1 579 578
M  V30 434 1 578 580
M  V30 435 1 582 581
M  V30 436 1 583 581
M  V30 437 1 584 585
M  V30 438 1 584 586
M  V30 439 1 587 588
M  V30 440 1 587 589
M  V30 441 1 591 590
M  V30 442 1 590 592
M  V30 443 1 595 593
M  V30 444 1 594 593
M  V30 445 1 598 596
M  V30 446 1 596 597
M  V30 447 1 600 599
M  V30 448 1 601 599
M  V30 449 1 604 602
M  V30 450 1 602 603
M  V30 451 1 607 605
M  V30 452 1 605 606
M  V30 453 1 610 608
M  V30 454 1 609 608
M  V30 455 1 612 611
M  V30 456 1 613 611
M  V30 457 1 616 614
M  V30 458 1 615 614
M  V30 459 1 617 618
M  V30 460 1 617 619
M  V30 461 1 621 620
M  V30 462 1 620 622
M  V30 463 1 625 623
M  V30 464 1 623 624
M  V30 465 1 626 628
M  V30 466 1 626 627
M  V30 467 1 630 629
M  V30 468 1 629 631
M  V30 469 1 634 632
M  V30 470 1 632 633
M  V30 471 1 637 635
M  V30 472 1 635 636
M  V30 473 1 639 638
M  V30 474 1 638 640
M  V30 475 1 641 643
M  V30 476 1 641 642
M  V30 477 1 645 644
M  V30 478 1 646 644
M  V30 479 1 648 647
M  V30 480 1 647 649
M  V30 481 1 651 650
M  V30 482 1 650 652
M  V30 483 1 655 653
M  V30 484 1 653 654
M  V30 485 1 658 656
M  V30 486 1 657 656
M  V30 487 1 659 660
M  V30 488 1 659 661
M  V30 489 1 663 662
M  V30 490 1 662 664
M  V30 491 1 666 665
M  V30 492 1 665 667
M  V30 493 1 670 668
M  V30 494 1 668 669
M  V30 495 1 673 671
M  V30 496 1 671 672
M  V30 497 1 675 674
M  V30 498 1 676 674
M  V30 499 1 678 677
M  V30 500 1 677 679
M  V30 501 1 681 680
M  V30 502 1 680 682
M  V30 503 1 684 683
M  V30 504 1 685 683
M  V30 505 1 687 686
M  V30 506 1 686 688
M  V30 507 1 689 691
M  V30 508 1 689 690
M  V30 509 1 694 692
M  V30 510 1 692 693
M  V30 511 1 697 695
M  V30 512 1 695 696
M  V30 513 1 700 698
M  V30 514 1 698 699
M  V30 515 1 702 701
M  V30 516 1 701 703
M  V30 517 1 704 706
M  V30 518 1 704 705
M  V30 519 1 708 707
M  V30 520 1 707 709
M  V30 521 1 712 710
M  V30 522 1 710 711
M  V30 523 1 713 714
M  V30 524 1 713 715
M  V30 525 1 718 716
M  V30 526 1 716 717
M  V30 527 1 721 719
M  V30 528 1 720 719
M  V30 529 1 724 722
M  V30 530 1 723 722
M  V30 531 1 725 726
M  V30 532 1 725 727
M  V30 533 1 729 728
M  V30 534 1 730 728
M  V30 535 1 733 731
M  V30 536 1 731 732
M  V30 537 1 735 734
M  V30 538 1 736 734
M  V30 539 1 738 737
M  V30 540 1 737 739
M  V30 541 1 740 742
M  V30 542 1 740 741
M  V30 543 1 744 743
M  V30 544 1 745 743
M  V30 545 1 746 747
M  V30 546 1 746 748
M  V30 547 1 751 749
M  V30 548 1 749 750
M  V30 549 1 754 752
M  V30 550 1 752 753
M  V30 551 1 756 755
M  V30 552 1 755 757
M  V30 553 1 760 758
M  V30 554 1 758 759
M  V30 555 1 762 761
M  V30 556 1 761 763
M  V30 557 1 764 765
M  V30 558 1 764 766
M  V30 559 1 768 767
M  V30 560 1 769 767
M  V30 561 1 771 770
M  V30 562 1 770 772
M  V30 563 1 775 773
M  V30 564 1 773 774
M  V30 565 1 778 776
M  V30 566 1 776 777
M  V30 567 1 779 781
M  V30 568 1 779 780
M  V30 569 1 782 784
M  V30 570 1 782 783
M  V30 571 1 787 785
M  V30 572 1 786 785
M  V30 573 1 789 788
M  V30 574 1 790 788
M  V30 575 1 793 791
M  V30 576 1 792 791
M  V30 577 1 795 794
M  V30 578 1 794 796
M  V30 579 1 799 797
M  V30 580 1 797 798
M  V30 581 1 801 800
M  V30 582 1 800 802
M  V30 583 1 803 805
M  V30 584 1 803 804
M  V30 585 1 808 806
M  V30 586 1 806 807
M  V30 587 1 811 809
M  V30 588 1 809 810
M  V30 589 1 814 812
M  V30 590 1 813 812
M  V30 591 1 816 815
M  V30 592 1 815 817
M  V30 593 1 819 818
M  V30 594 1 818 820
M  V30 595 1 821 822
M  V30 596 1 821 823
M  V30 597 1 824 826
M  V30 598 1 824 825
M  V30 599 1 829 827
M  V30 600 1 827 828
M  V30 601 1 832 830
M  V30 602 1 831 830
M  V30 603 1 835 833
M  V30 604 1 833 834
M  V30 605 1 838 836
M  V30 606 1 836 837
M  V30 607 1 841 839
M  V30 608 1 839 840
M  V30 609 1 843 842
M  V30 610 1 842 844
M  V30 611 1 845 846
M  V30 612 1 845 847
M  V30 613 1 850 848
M  V30 614 1 848 849
M  V30 615 1 853 851
M  V30 616 1 851 852
M  V30 617 1 855 854
M  V30 618 1 856 854
M  V30 619 1 858 857
M  V30 620 1 859 857
M  V30 621 1 862 860
M  V30 622 1 860 861
M  V30 623 1 865 863
M  V30 624 1 863 864
M  V30 625 1 866 867
M  V30 626 1 866 868
M  V30 627 1 870 869
M  V30 628 1 869 871
M  V30 629 1 874 872
M  V30 630 1 872 873
M  V30 631 1 876 875
M  V30 632 1 875 877
M  V30 633 1 880 878
M  V30 634 1 878 879
M  V30 635 1 882 881
M  V30 636 1 881 883
M  V30 637 1 885 884
M  V30 638 1 884 886
M  V30 639 1 888 887
M  V30 640 1 889 887
M  V30 641 1 891 890
M  V30 642 1 892 890
M  V30 643 1 895 893
M  V30 644 1 894 893
M  V30 645 1 898 896
M  V30 646 1 896 897
M  V30 647 1 901 899
M  V30 648 1 899 900
M  V30 649 1 903 902
M  V30 650 1 902 904
M  V30 651 1 906 905
M  V30 652 1 905 907
M  V30 653 1 909 908
M  V30 654 1 908 910
M  V30 655 1 912 911
M  V30 656 1 911 913
M  V30 657 1 915 914
M  V30 658 1 914 916
M  V30 659 1 918 917
M  V30 660 1 917 919
M  V30 661 1 921 920
M  V30 662 1 920 922
M  V30 663 1 923 925
M  V30 664 1 923 924
M  V30 665 1 927 926
M  V30 666 1 926 928
M  V30 667 1 931 929
M  V30 668 1 929 930
M  V30 669 1 934 932
M  V30 670 1 932 933
M  V30 671 1 935 936
M  V30 672 1 935 937
M  V30 673 1 939 938
M  V30 674 1 938 940
M  V30 675 1 943 941
M  V30 676 1 942 941
M  V30 677 1 945 944
M  V30 678 1 944 946
M  V30 679 1 948 947
M  V30 680 1 949 947
M  V30 681 1 952 950
M  V30 682 1 951 950
M  V30 683 1 954 953
M  V30 684 1 953 955
M  V30 685 1 958 956
M  V30 686 1 956 957
M  V30 687 1 960 959
M  V30 688 1 959 961
M  V30 689 1 964 962
M  V30 690 1 962 963
M  V30 691 1 966 965
M  V30 692 1 967 965
M  V30 693 1 970 968
M  V30 694 1 968 969
M  V30 695 1 972 971
M  V30 696 1 971 973
M  V30 697 1 975 974
M  V30 698 1 974 976
M  V30 699 1 977 979
M  V30 700 1 977 978
M  V30 701 1 980 982
M  V30 702 1 980 981
M  V30 703 1 984 983
M  V30 704 1 985 983
M  V30 705 1 986 987
M  V30 706 1 986 988
M  V30 707 1 990 989
M  V30 708 1 989 991
M  V30 709 1 993 992
M  V30 710 1 992 994
M  V30 711 1 996 995
M  V30 712 1 995 997
M  V30 713 1 1000 998
M  V30 714 1 999 998
M  V30 715 1 1001 1003
M  V30 716 1 1001 1002
M  V30 717 1 1006 1004
M  V30 718 1 1004 1005
M  V30 719 1 1008 1007
M  V30 720 1 1007 1009
M  V30 721 1 1012 1010
M  V30 722 1 1010 1011
M  V30 723 1 1014 1013
M  V30 724 1 1015 1013
M  V30 725 1 1018 1016
M  V30 726 1 1017 1016
M  V30 727 1 1020 1019
M  V30 728 1 1019 1021
M  V30 729 1 1024 1022
M  V30 730 1 1022 1023
M  V30 731 1 1026 1025
M  V30 732 1 1025 1027
M  V30 733 1 1029 1028
M  V30 734 1 1028 1030
M  V30 735 1 1033 1031
M  V30 736 1 1031 1032
M  V30 737 1 1036 1034
M  V30 738 1 1035 1034
M  V30 739 1 1037 1039
M  V30 740 1 1037 1038
M  V30 741 1 1042 1040
M  V30 742 1 1040 1041
M  V30 743 1 1045 1043
M  V30 744 1 1043 1044
M  V30 745 1 1048 1046
M  V30 746 1 1047 1046
M  V30 747 1 1051 1049
M  V30 748 1 1050 1049
M  V30 749 1 1054 1052
M  V30 750 1 1052 1053
M  V30 751 1 1056 1055
M  V30 752 1 1055 1057
M  V30 753 1 1058 1059
M  V30 754 1 1058 1060
M  V30 755 1 1063 1061
M  V30 756 1 1061 1062
M  V30 757 1 1066 1064
M  V30 758 1 1064 1065
M  V30 759 1 1069 1067
M  V30 760 1 1067 1068
M  V30 761 1 1071 1070
M  V30 762 1 1072 1070
M  V30 763 1 1075 1073
M  V30 764 1 1073 1074
M  V30 765 1 1078 1076
M  V30 766 1 1076 1077
M  V30 767 1 1080 1079
M  V30 768 1 1079 1081
M  V30 769 1 1082 1084
M  V30 770 1 1082 1083
M  V30 771 1 1087 1085
M  V30 772 1 1086 1085
M  V30 773 1 1089 1088
M  V30 774 1 1090 1088
M  V30 775 1 1092 1091
M  V30 776 1 1091 1093
M  V30 777 1 1095 1094
M  V30 778 1 1094 1096
M  V30 779 1 1098 1097
M  V30 780 1 1097 1099
M  V30 781 1 1102 1100
M  V30 782 1 1100 1101
M  V30 783 1 1104 1103
M  V30 784 1 1103 1105
M  V30 785 1 1108 1106
M  V30 786 1 1107 1106
M  V30 787 1 1110 1109
M  V30 788 1 1109 1111
M  V30 789 1 1113 1112
M  V30 790 1 1112 1114
M  V30 791 1 1117 1115
M  V30 792 1 1115 1116
M  V30 793 1 1118 1120
M  V30 794 1 1118 1119
M  V30 795 1 1122 1121
M  V30 796 1 1121 1123
M  V30 797 1 1124 1125
M  V30 798 1 1124 1126
M  V30 799 1 1129 1127
M  V30 800 1 1127 1128
M  V30 801 1 1130 1131
M  V30 802 1 1130 1132
M  V30 803 1 1134 1133
M  V30 804 1 1133 1135
M  V30 805 1 1138 1136
M  V30 806 1 1137 1136
M  V30 807 1 1141 1139
M  V30 808 1 1139 1140
M  V30 809 1 1143 1142
M  V30 810 1 1142 1144
M  V30 811 1 1145 1146
M  V30 812 1 1145 1147
M  V30 813 1 1150 1148
M  V30 814 1 1149 1148
M  V30 815 1 1153 1151
M  V30 816 1 1152 1151
M  V30 817 1 1155 1154
M  V30 818 1 1154 1156
M  V30 819 1 1159 1157
M  V30 820 1 1157 1158
M  V30 821 1 1160 1162
M  V30 822 1 1160 1161
M  V30 823 1 1165 1163
M  V30 824 1 1163 1164
M  V30 825 1 1168 1166
M  V30 826 1 1166 1167
M  V30 827 1 1171 1169
M  V30 828 1 1169 1170
M  V30 829 1 1173 1172
M  V30 830 1 1172 1174
M  V30 831 1 1177 1175
M  V30 832 1 1176 1175
M  V30 833 1 1180 1178
M  V30 834 1 1178 1179
M  V30 835 1 1182 1181
M  V30 836 1 1181 1183
M  V30 837 1 1186 1184
M  V30 838 1 1184 1185
M  V30 839 1 1187 1188
M  V30 840 1 1187 1189
M  V30 841 1 1192 1190
M  V30 842 1 1190 1191
M  V30 843 1 1195 1193
M  V30 844 1 1193 1194
M  V30 845 1 1198 1196
M  V30 846 1 1196 1197
M  V30 847 1 1201 1199
M  V30 848 1 1200 1199
M  V30 849 1 1204 1202
M  V30 850 1 1202 1203
M  V30 851 1 1206 1205
M  V30 852 1 1205 1207
M  V30 853 1 1210 1208
M  V30 854 1 1208 1209
M  V30 855 1 1212 1211
M  V30 856 1 1213 1211
M  V30 857 1 1216 1214
M  V30 858 1 1214 1215
M  V30 859 1 1219 1217
M  V30 860 1 1218 1217
M  V30 861 1 1222 1220
M  V30 862 1 1221 1220
M  V30 863 1 1223 1225
M  V30 864 1 1223 1224
M  V30 865 1 1226 1227
M  V30 866 1 1226 1228
M  V30 867 1 1231 1229
M  V30 868 1 1229 1230
M  V30 869 1 1232 1234
M  V30 870 1 1232 1233
M  V30 871 1 1235 1236
M  V30 872 1 1235 1237
M  V30 873 1 1239 1238
M  V30 874 1 1240 1238
M  V30 875 1 1242 1241
M  V30 876 1 1241 1243
M  V30 877 1 1245 1244
M  V30 878 1 1244 1246
M  V30 879 1 1249 1247
M  V30 880 1 1247 1248
M  V30 881 1 1252 1250
M  V30 882 1 1250 1251
M  V30 883 1 1254 1253
M  V30 884 1 1255 1253
M  V30 885 1 1258 1256
M  V30 886 1 1257 1256
M  V30 887 1 1261 1259
M  V30 888 1 1260 1259
M  V30 889 1 1263 1262
M  V30 890 1 1262 1264
M  V30 891 1 1266 1265
M  V30 892 1 1265 1267
M  V30 893 1 1269 1268
M  V30 894 1 1268 1270
M  V30 895 1 1272 1271
M  V30 896 1 1271 1273
M  V30 897 1 1274 1275
M  V30 898 1 1274 1276
M  V30 899 1 1277 1279
M  V30 900 1 1277 1278
M  V30 901 1 1282 1280
M  V30 902 1 1281 1280
M  V30 903 1 1283 1285
M  V30 904 1 1283 1284
M  V30 905 1 1288 1286
M  V30 906 1 1287 1286
M  V30 907 1 1291 1289
M  V30 908 1 1289 1290
M  V30 909 1 1294 1292
M  V30 910 1 1292 1293
M  V30 911 1 1295 1297
M  V30 912 1 1295 1296
M  V30 913 1 1298 1300
M  V30 914 1 1298 1299
M  V30 915 1 1302 1301
M  V30 916 1 1301 1303
M  V30 917 1 1305 1304
M  V30 918 1 1304 1306
M  V30 919 1 1309 1307
M  V30 920 1 1307 1308
M  V30 921 1 1311 1310
M  V30 922 1 1312 1310
M  V30 923 1 1313 1314
M  V30 924 1 1313 1315
M  V30 925 1 1318 1316
M  V30 926 1 1316 1317
M  V30 927 1 1321 1319
M  V30 928 1 1320 1319
M  V30 929 1 1323 1322
M  V30 930 1 1324 1322
M  V30 931 1 1327 1325
M  V30 932 1 1325 1326
M  V30 933 1 1329 1328
M  V30 934 1 1328 1330
M  V30 935 1 1331 1333
M  V30 936 1 1331 1332
M  V30 937 1 1336 1334
M  V30 938 1 1334 1335
M  V30 939 1 1339 1337
M  V30 940 1 1337 1338
M  V30 941 1 1341 1340
M  V30 942 1 1340 1342
M  V30 943 1 1345 1343
M  V30 944 1 1343 1344
M  V30 945 1 1348 1346
M  V30 946 1 1346 1347
M  V30 947 1 1350 1349
M  V30 948 1 1351 1349
M  V30 949 1 1353 1352
M  V30 950 1 1352 1354
M  V30 951 1 1356 1355
M  V30 952 1 1357 1355
M  V30 953 1 1359 1358
M  V30 954 1 1358 1360
M  V30 955 1 1363 1361
M  V30 956 1 1361 1362
M  V30 957 1 1365 1364
M  V30 958 1 1366 1364
M  V30 959 1 1369 1367
M  V30 960 1 1367 1368
M  V30 961 1 1371 1370
M  V30 962 1 1370 1372
M  V30 963 1 1375 1373
M  V30 964 1 1373 1374
M  V30 965 1 1378 1376
M  V30 966 1 1376 1377
M  V30 967 1 1380 1379
M  V30 968 1 1381 1379
M  V30 969 1 1383 1382
M  V30 970 1 1382 1384
M  V30 971 1 1386 1385
M  V30 972 1 1387 1385
M  V30 973 1 1388 1389
M  V30 974 1 1388 1390
M  V30 975 1 1392 1391
M  V30 976 1 1391 1393
M  V30 977 1 1395 1394
M  V30 978 1 1394 1396
M  V30 979 1 1397 1399
M  V30 980 1 1397 1398
M  V30 981 1 1400 1402
M  V30 982 1 1400 1401
M  V30 983 1 1403 1405
M  V30 984 1 1403 1404
M  V30 985 1 1408 1406
M  V30 986 1 1406 1407
M  V30 987 1 1410 1409
M  V30 988 1 1411 1409
M  V30 989 1 1413 1412
M  V30 990 1 1412 1414
M  V30 991 1 1416 1415
M  V30 992 1 1417 1415
M  V30 993 1 1420 1418
M  V30 994 1 1418 1419
M  V30 995 1 1422 1421
M  V30 996 1 1423 1421
M  V30 997 1 1424 1426
M  V30 998 1 1424 1425
M  V30 999 1 1429 1427
M  V30 1000 1 1428 1427
M  V30 1001 1 1432 1430
M  V30 1002 1 1430 1431
M  V30 1003 1 1434 1433
M  V30 1004 1 1433 1435
M  V30 1005 1 1438 1436
M  V30 1006 1 1436 1437
M  V30 1007 1 1439 1441
M  V30 1008 1 1439 1440
M  V30 1009 1 1443 1442
M  V30 1010 1 1442 1444
M  V30 1011 1 1446 1445
M  V30 1012 1 1445 1447
M  V30 1013 1 1450 1448
M  V30 1014 1 1448 1449
M  V30 1015 1 1452 1451
M  V30 1016 1 1451 1453
M  V30 1017 1 1455 1454
M  V30 1018 1 1454 1456
M  V30 1019 1 1458 1457
M  V30 1020 1 1457 1459
M  V30 1021 1 1462 1460
M  V30 1022 1 1460 1461
M  V30 1023 1 1464 1463
M  V30 1024 1 1463 1465
M  V30 1025 1 1468 1466
M  V30 1026 1 1466 1467
M  V30 1027 1 1469 1471
M  V30 1028 1 1469 1470
M  V30 1029 1 1472 1474
M  V30 1030 1 1472 1473
M  V30 1031 1 1476 1475
M  V30 1032 1 1475 1477
M  V30 1033 1 1479 1478
M  V30 1034 1 1478 1480
M  V30 1035 1 1481 1482
M  V30 1036 1 1481 1483
M  V30 1037 1 1485 1484
M  V30 1038 1 1484 1486
M  V30 1039 1 1488 1487
M  V30 1040 1 1487 1489
M  V30 1041 1 1492 1490
M  V30 1042 1 1490 1491
M  V30 1043 1 1495 1493
M  V30 1044 1 1494 1493
M  V30 1045 1 1498 1496
M  V30 1046 1 1496 1497
M  V30 1047 1 1499 1501
M  V30 1048 1 1499 1500
M  V30 1049 1 1503 1502
M  V30 1050 1 1502 1504
M  V30 1051 1 1506 1505
M  V30 1052 1 1507 1505
M  V30 1053 1 1509 1508
M  V30 1054 1 1508 1510
M  V30 1055 1 1511 1513
M  V30 1056 1 1511 1512
M  V30 1057 1 1514 1515
M  V30 1058 1 1514 1516
M  V30 1059 1 1517 1519
M  V30 1060 1 1517 1518
M  V30 1061 1 1522 1520
M  V30 1062 1 1520 1521
M  V30 1063 1 1525 1523
M  V30 1064 1 1524 1523
M  V30 1065 1 1528 1526
M  V30 1066 1 1526 1527
M  V30 1067 1 1530 1529
M  V30 1068 1 1531 1529
M  V30 1069 1 1534 1532
M  V30 1070 1 1533 1532
M  V30 1071 1 1535 1537
M  V30 1072 1 1535 1536
M  V30 1073 1 1539 1538
M  V30 1074 1 1540 1538
M  V30 1075 1 1542 1541
M  V30 1076 1 1541 1543
M  V30 1077 1 1544 1546
M  V30 1078 1 1544 1545
M  V30 1079 1 1549 1547
M  V30 1080 1 1548 1547
M  V30 1081 1 1551 1550
M  V30 1082 1 1552 1550
M  V30 1083 1 1554 1553
M  V30 1084 1 1555 1553
M  V30 1085 1 1558 1556
M  V30 1086 1 1556 1557
M  V30 1087 1 1561 1559
M  V30 1088 1 1559 1560
M  V30 1089 1 1562 1564
M  V30 1090 1 1562 1563
M  V30 1091 1 1566 1565
M  V30 1092 1 1565 1567
M  V30 1093 1 1570 1568
M  V30 1094 1 1569 1568
M  V30 1095 1 1572 1571
M  V30 1096 1 1571 1573
M  V30 1097 1 1576 1574
M  V30 1098 1 1575 1574
M  V30 1099 1 1579 1577
M  V30 1100 1 1577 1578
M  V30 1101 1 1581 1580
M  V30 1102 1 1580 1582
M  V30 1103 1 1584 1583
M  V30 1104 1 1583 1585
M  V30 1105 1 1588 1586
M  V30 1106 1 1587 1586
M  V30 1107 1 1591 1589
M  V30 1108 1 1589 1590
M  V30 1109 1 1593 1592
M  V30 1110 1 1592 1594
M  V30 1111 1 1596 1595
M  V30 1112 1 1595 1597
M  V30 1113 1 1599 1598
M  V30 1114 1 1598 1600
M  V30 1115 1 1602 1601
M  V30 1116 1 1603 1601
M  V30 1117 1 1604 1606
M  V30 1118 1 1604 1605
M  V30 1119 1 1609 1607
M  V30 1120 1 1607 1608
M  V30 1121 1 1610 1611
M  V30 1122 1 1610 1612
M  V30 1123 1 1613 1615
M  V30 1124 1 1613 1614
M  V30 1125 1 1617 1616
M  V30 1126 1 1616 1618
M  V30 1127 1 1620 1619
M  V30 1128 1 1621 1619
M  V30 1129 1 1623 1622
M  V30 1130 1 1624 1622
M  V30 1131 1 1627 1625
M  V30 1132 1 1625 1626
M  V30 1133 1 1628 1630
M  V30 1134 1 1628 1629
M  V30 1135 1 1633 1631
M  V30 1136 1 1632 1631
M  V30 1137 1 1636 1634
M  V30 1138 1 1635 1634
M  V30 1139 1 1637 1639
M  V30 1140 1 1637 1638
M  V30 1141 1 1641 1640
M  V30 1142 1 1642 1640
M  V30 1143 1 1643 1644
M  V30 1144 1 1643 1645
M  V30 1145 1 1648 1646
M  V30 1146 1 1647 1646
M  V30 1147 1 1651 1649
M  V30 1148 1 1650 1649
M  V30 1149 1 1653 1652
M  V30 1150 1 1654 1652
M  V30 1151 1 1656 1655
M  V30 1152 1 1655 1657
M  V30 1153 1 1660 1658
M  V30 1154 1 1658 1659
M  V30 1155 1 1663 1661
M  V30 1156 1 1662 1661
M  V30 1157 1 1666 1664
M  V30 1158 1 1665 1664
M  V30 1159 1 1668 1667
M  V30 1160 1 1669 1667
M  V30 1161 1 1670 1671
M  V30 1162 1 1670 1672
M  V30 1163 1 1673 1674
M  V30 1164 1 1673 1675
M  V30 1165 1 1677 1676
M  V30 1166 1 1676 1678
M  V30 1167 1 1681 1679
M  V30 1168 1 1679 1680
M  V30 1169 1 1684 1682
M  V30 1170 1 1682 1683
M  V30 1171 1 1687 1685
M  V30 1172 1 1685 1686
M  V30 1173 1 1690 1688
M  V30 1174 1 1689 1688
M  V30 1175 1 1693 1691
M  V30 1176 1 1691 1692
M  V30 1177 1 1695 1694
M  V30 1178 1 1694 1696
M  V30 1179 1 1697 1699
M  V30 1180 1 1697 1698
M  V30 1181 1 1700 1702
M  V30 1182 1 1700 1701
M  V30 1183 1 1705 1703
M  V30 1184 1 1704 1703
M  V30 1185 1 1707 1706
M  V30 1186 1 1706 1708
M  V30 1187 1 1711 1709
M  V30 1188 1 1709 1710
M  V30 1189 1 1712 1714
M  V30 1190 1 1712 1713
M  V30 1191 1 1716 1715
M  V30 1192 1 1715 1717
M  V30 1193 1 1720 1718
M  V30 1194 1 1718 1719
M  V30 1195 1 1721 1722
M  V30 1196 1 1721 1723
M  V30 1197 1 1725 1724
M  V30 1198 1 1724 1726
M  V30 1199 1 1727 1728
M  V30 1200 1 1727 1729
M  V30 1201 1 1732 1730
M  V30 1202 1 1730 1731
M  V30 1203 1 1735 1733
M  V30 1204 1 1734 1733
M  V30 1205 1 1738 1736
M  V30 1206 1 1736 1737
M  V30 1207 1 1741 1739
M  V30 1208 1 1739 1740
M  V30 1209 1 1743 1742
M  V30 1210 1 1742 1744
M  V30 1211 1 1747 1745
M  V30 1212 1 1745 1746
M  V30 1213 1 1749 1748
M  V30 1214 1 1748 1750
M  V30 1215 1 1751 1753
M  V30 1216 1 1751 1752
M  V30 1217 1 1754 1755
M  V30 1218 1 1754 1756
M  V30 1219 1 1759 1757
M  V30 1220 1 1758 1757
M  V30 1221 1 1761 1760
M  V30 1222 1 1762 1760
M  V30 1223 1 1765 1763
M  V30 1224 1 1764 1763
M  V30 1225 1 1768 1766
M  V30 1226 1 1766 1767
M  V30 1227 1 1769 1771
M  V30 1228 1 1769 1770
M  V30 1229 1 1773 1772
M  V30 1230 1 1772 1774
M  V30 1231 1 1776 1775
M  V30 1232 1 1775 1777
M  V30 1233 1 1778 1779
M  V30 1234 1 1778 1780
M  V30 1235 1 1781 1782
M  V30 1236 1 1781 1783
M  V30 1237 1 1786 1784
M  V30 1238 1 1784 1785
M  V30 1239 1 1789 1787
M  V30 1240 1 1787 1788
M  V30 1241 1 1792 1790
M  V30 1242 1 1791 1790
M  V30 1243 1 1793 1795
M  V30 1244 1 1793 1794
M  V30 1245 1 1797 1796
M  V30 1246 1 1796 1798
M  V30 1247 1 1800 1799
M  V30 1248 1 1799 1801
M  V30 1249 1 1803 1802
M  V30 1250 1 1802 1804
M  V30 1251 1 1807 1805
M  V30 1252 1 1805 1806
M  V30 1253 1 1809 1808
M  V30 1254 1 1808 1810
M  V30 1255 1 1811 1813
M  V30 1256 1 1811 1812
M  V30 1257 1 1815 1814
M  V30 1258 1 1814 1816
M  V30 1259 1 1819 1817
M  V30 1260 1 1817 1818
M  V30 1261 1 1821 1820
M  V30 1262 1 1820 1822
M  V30 1263 1 1825 1823
M  V30 1264 1 1823 1824
M  V30 1265 1 1826 1827
M  V30 1266 1 1826 1828
M  V30 1267 1 1829 1830
M  V30 1268 1 1829 1831
M  V30 1269 1 1833 1832
M  V30 1270 1 1834 1832
M  V30 1271 1 1837 1835
M  V30 1272 1 1835 1836
M  V30 1273 1 1839 1838
M  V30 1274 1 1838 1840
M  V30 1275 1 1843 1841
M  V30 1276 1 1841 1842
M  V30 1277 1 1845 1844
M  V30 1278 1 1844 1846
M  V30 1279 1 1848 1847
M  V30 1280 1 1847 1849
M  V30 1281 1 1852 1850
M  V30 1282 1 1850 1851
M  V30 1283 1 1854 1853
M  V30 1284 1 1855 1853
M  V30 1285 1 1858 1856
M  V30 1286 1 1856 1857
M  V30 1287 1 1859 1860
M  V30 1288 1 1859 1861
M  V30 1289 1 1864 1862
M  V30 1290 1 1862 1863
M  V30 1291 1 1866 1865
M  V30 1292 1 1865 1867
M  V30 1293 1 1868 1870
M  V30 1294 1 1868 1869
M  V30 1295 1 1873 1871
M  V30 1296 1 1871 1872
M  V30 1297 1 1875 1874
M  V30 1298 1 1874 1876
M  V30 1299 1 1878 1877
M  V30 1300 1 1877 1879
M  V30 1301 1 1881 1880
M  V30 1302 1 1880 1882
M  V30 1303 1 1885 1883
M  V30 1304 1 1883 1884
M  V30 1305 1 1887 1886
M  V30 1306 1 1888 1886
M  V30 1307 1 1891 1889
M  V30 1308 1 1889 1890
M  V30 1309 1 1894 1892
M  V30 1310 1 1892 1893
M  V30 1311 1 1896 1895
M  V30 1312 1 1897 1895
M  V30 1313 1 1899 1898
M  V30 1314 1 1898 1900
M  V30 1315 1 1902 1901
M  V30 1316 1 1901 1903
M  V30 1317 1 1906 1904
M  V30 1318 1 1904 1905
M  V30 1319 1 1909 1907
M  V30 1320 1 1908 1907
M  V30 1321 1 1911 1910
M  V30 1322 1 1910 1912
M  V30 1323 1 1915 1913
M  V30 1324 1 1914 1913
M  V30 1325 1 1916 1917
M  V30 1326 1 1916 1918
M  V30 1327 1 1920 1919
M  V30 1328 1 1919 1921
M  V30 1329 1 1923 1922
M  V30 1330 1 1922 1924
M  V30 1331 1 1926 1925
M  V30 1332 1 1927 1925
M  V30 1333 1 1929 1928
M  V30 1334 1 1928 1930
M  V30 1335 1 1931 1933
M  V30 1336 1 1931 1932
M  V30 1337 1 1936 1934
M  V30 1338 1 1934 1935
M  V30 1339 1 1939 1937
M  V30 1340 1 1937 1938
M  V30 1341 1 1942 1940
M  V30 1342 1 1940 1941
M  V30 1343 1 1943 1944
M  V30 1344 1 1943 1945
M  V30 1345 1 1947 1946
M  V30 1346 1 1946 1948
M  V30 1347 1 1951 1949
M  V30 1348 1 1949 1950
M  V30 1349 1 1954 1952
M  V30 1350 1 1952 1953
M  V30 1351 1 1957 1955
M  V30 1352 1 1955 1956
M  V30 1353 1 1959 1958
M  V30 1354 1 1958 1960
M  V30 1355 1 1963 1961
M  V30 1356 1 1961 1962
M  V30 1357 1 1966 1964
M  V30 1358 1 1964 1965
M  V30 1359 1 1968 1967
M  V30 1360 1 1967 1969
M  V30 1361 1 1971 1970
M  V30 1362 1 1970 1972
M  V30 1363 1 1973 1975
M  V30 1364 1 1973 1974
M  V30 1365 1 1978 1976
M  V30 1366 1 1976 1977
M  V30 1367 1 1981 1979
M  V30 1368 1 1979 1980
M  V30 1369 1 1984 1982
M  V30 1370 1 1983 1982
M  V30 1371 1 1987 1985
M  V30 1372 1 1986 1985
M  V30 1373 1 1990 1988
M  V30 1374 1 1989 1988
M  V30 1375 1 1992 1991
M  V30 1376 1 1991 1993
M  V30 1377 1 1995 1994
M  V30 1378 1 1994 1996
M  V30 1379 1 1998 1997
M  V30 1380 1 1999 1997
M  V30 1381 1 2000 2002
M  V30 1382 1 2000 2001
M  V30 1383 1 2004 2003
M  V30 1384 1 2003 2005
M  V30 1385 1 2007 2006
M  V30 1386 1 2006 2008
M  V30 1387 1 2009 2011
M  V30 1388 1 2009 2010
M  V30 1389 1 2013 2012
M  V30 1390 1 2012 2014
M  V30 1391 1 2016 2015
M  V30 1392 1 2015 2017
M  V30 1393 1 2019 2018
M  V30 1394 1 2018 2020
M  V30 1395 1 2021 2022
M  V30 1396 1 2021 2023
M  V30 1397 1 2026 2024
M  V30 1398 1 2025 2024
M  V30 1399 1 2028 2027
M  V30 1400 1 2029 2027
M  V30 1401 1 2031 2030
M  V30 1402 1 2030 2032
M  V30 1403 1 2034 2033
M  V30 1404 1 2033 2035
M  V30 1405 1 2037 2036
M  V30 1406 1 2038 2036
M  V30 1407 1 2040 2039
M  V30 1408 1 2039 2041
M  V30 1409 1 2043 2042
M  V30 1410 1 2042 2044
M  V30 1411 1 2046 2045
M  V30 1412 1 2045 2047
M  V30 1413 1 2049 2048
M  V30 1414 1 2048 2050
M  V30 1415 1 2052 2051
M  V30 1416 1 2051 2053
M  V30 1417 1 2056 2054
M  V30 1418 1 2055 2054
M  V30 1419 1 2058 2057
M  V30 1420 1 2059 2057
M  V30 1421 1 2062 2060
M  V30 1422 1 2061 2060
M  V30 1423 1 2065 2063
M  V30 1424 1 2063 2064
M  V30 1425 1 2068 2066
M  V30 1426 1 2067 2066
M  V30 1427 1 2070 2069
M  V30 1428 1 2071 2069
M  V30 1429 1 2072 2073
M  V30 1430 1 2072 2074
M  V30 1431 1 2076 2075
M  V30 1432 1 2077 2075
M  V30 1433 1 2079 2078
M  V30 1434 1 2080 2078
M  V30 1435 1 2082 2081
M  V30 1436 1 2083 2081
M  V30 1437 1 2085 2084
M  V30 1438 1 2084 2086
M  V30 1439 1 2087 2089
M  V30 1440 1 2087 2088
M  V30 1441 1 2090 2091
M  V30 1442 1 2090 2092
M  V30 1443 1 2095 2093
M  V30 1444 1 2093 2094
M  V30 1445 1 2097 2096
M  V30 1446 1 2096 2098
M  V30 1447 1 2099 2101
M  V30 1448 1 2099 2100
M  V30 1449 1 2103 2102
M  V30 1450 1 2102 2104
M  V30 1451 1 2106 2105
M  V30 1452 1 2105 2107
M  V30 1453 1 2109 2108
M  V30 1454 1 2108 2110
M  V30 1455 1 2111 2113
M  V30 1456 1 2111 2112
M  V30 1457 1 2114 2115
M  V30 1458 1 2114 2116
M  V30 1459 1 2119 2117
M  V30 1460 1 2118 2117
M  V30 1461 1 2121 2120
M  V30 1462 1 2120 2122
M  V30 1463 1 2125 2123
M  V30 1464 1 2124 2123
M  V30 1465 1 2128 2126
M  V30 1466 1 2126 2127
M  V30 1467 1 2130 2129
M  V30 1468 1 2129 2131
M  V30 1469 1 2134 2132
M  V30 1470 1 2132 2133
M  V30 1471 1 2137 2135
M  V30 1472 1 2135 2136
M  V30 1473 1 2139 2138
M  V30 1474 1 2138 2140
M  V30 1475 1 2143 2141
M  V30 1476 1 2141 2142
M  V30 1477 1 2144 2145
M  V30 1478 1 2144 2146
M  V30 1479 1 2147 2148
M  V30 1480 1 2147 2149
M  V30 1481 1 2151 2150
M  V30 1482 1 2150 2152
M  V30 1483 1 2155 2153
M  V30 1484 1 2153 2154
M  V30 1485 1 2157 2156
M  V30 1486 1 2156 2158
M  V30 1487 1 2159 2160
M  V30 1488 1 2159 2161
M  V30 1489 1 2164 2162
M  V30 1490 1 2162 2163
M  V30 1491 1 2167 2165
M  V30 1492 1 2165 2166
M  V30 1493 1 2170 2168
M  V30 1494 1 2168 2169
M  V30 1495 1 2173 2171
M  V30 1496 1 2171 2172
M  V30 1497 1 2176 2174
M  V30 1498 1 2174 2175
M  V30 1499 1 2178 2177
M  V30 1500 1 2177 2179
M  V30 1501 1 2182 2180
M  V30 1502 1 2180 2181
M  V30 1503 1 2185 2183
M  V30 1504 1 2183 2184
M  V30 1505 1 2187 2186
M  V30 1506 1 2186 2188
M  V30 1507 1 2189 2191
M  V30 1508 1 2189 2190
M  V30 1509 1 2194 2192
M  V30 1510 1 2192 2193
M  V30 1511 1 2196 2195
M  V30 1512 1 2197 2195
M  V30 1513 1 2199 2198
M  V30 1514 1 2198 2200
M  V30 1515 1 2201 2203
M  V30 1516 1 2201 2202
M  V30 1517 1 2206 2204
M  V30 1518 1 2204 2205
M  V30 1519 1 2209 2207
M  V30 1520 1 2207 2208
M  V30 1521 1 2211 2210
M  V30 1522 1 2210 2212
M  V30 1523 1 2215 2213
M  V30 1524 1 2213 2214
M  V30 1525 1 2216 2218
M  V30 1526 1 2216 2217
M  V30 1527 1 2220 2219
M  V30 1528 1 2219 2221
M  V30 1529 1 2223 2222
M  V30 1530 1 2222 2224
M  V30 1531 1 2226 2225
M  V30 1532 1 2227 2225
M  V30 1533 1 2229 2228
M  V30 1534 1 2228 2230
M  V30 1535 1 2232 2231
M  V30 1536 1 2231 2233
M  V30 1537 1 2236 2234
M  V30 1538 1 2234 2235
M  V30 1539 1 2239 2237
M  V30 1540 1 2237 2238
M  V30 1541 1 2240 2242
M  V30 1542 1 2240 2241
M  V30 1543 1 2245 2243
M  V30 1544 1 2244 2243
M  V30 1545 1 2248 2246
M  V30 1546 1 2246 2247
M  V30 1547 1 2250 2249
M  V30 1548 1 2249 2251
M  V30 1549 1 2254 2252
M  V30 1550 1 2252 2253
M  V30 1551 1 2256 2255
M  V30 1552 1 2255 2257
M  V30 1553 1 2260 2258
M  V30 1554 1 2258 2259
M  V30 1555 1 2263 2261
M  V30 1556 1 2262 2261
M  V30 1557 1 2265 2264
M  V30 1558 1 2264 2266
M  V30 1559 1 2269 2267
M  V30 1560 1 2267 2268
M  V30 1561 1 2271 2270
M  V30 1562 1 2272 2270
M  V30 1563 1 2274 2273
M  V30 1564 1 2273 2275
M  V30 1565 1 2278 2276
M  V30 1566 1 2276 2277
M  V30 1567 1 2279 2281
M  V30 1568 1 2279 2280
M  V30 1569 1 2282 2284
M  V30 1570 1 2282 2283
M  V30 1571 1 2286 2285
M  V30 1572 1 2285 2287
M  V30 1573 1 2290 2288
M  V30 1574 1 2288 2289
M  V30 1575 1 2292 2291
M  V30 1576 1 2291 2293
M  V30 1577 1 2296 2294
M  V30 1578 1 2294 2295
M  V30 1579 1 2297 2299
M  V30 1580 1 2297 2298
M  V30 1581 1 2301 2300
M  V30 1582 1 2300 2302
M  V30 1583 1 2303 2304
M  V30 1584 1 2303 2305
M  V30 1585 1 2307 2306
M  V30 1586 1 2306 2308
M  V30 1587 1 2309 2310
M  V30 1588 1 2309 2311
M  V30 1589 1 2314 2312
M  V30 1590 1 2312 2313
M  V30 1591 1 2316 2315
M  V30 1592 1 2315 2317
M  V30 1593 1 2320 2318
M  V30 1594 1 2318 2319
M  V30 1595 1 2321 2322
M  V30 1596 1 2321 2323
M  V30 1597 1 2326 2324
M  V30 1598 1 2324 2325
M  V30 1599 1 2327 2328
M  V30 1600 1 2327 2329
M  V30 1601 1 2331 2330
M  V30 1602 1 2332 2330
M  V30 1603 1 2334 2333
M  V30 1604 1 2333 2335
M  V30 1605 1 2336 2338
M  V30 1606 1 2336 2337
M  V30 1607 1 2340 2339
M  V30 1608 1 2341 2339
M  V30 1609 1 2343 2342
M  V30 1610 1 2342 2344
M  V30 1611 1 2346 2345
M  V30 1612 1 2347 2345
M  V30 1613 1 2348 2350
M  V30 1614 1 2348 2349
M  V30 1615 1 2352 2351
M  V30 1616 1 2351 2353
M  V30 1617 1 2354 2355
M  V30 1618 1 2354 2356
M  V30 1619 1 2358 2357
M  V30 1620 1 2357 2359
M  V30 1621 1 2362 2360
M  V30 1622 1 2361 2360
M  V30 1623 1 2363 2365
M  V30 1624 1 2363 2364
M  V30 1625 1 2366 2367
M  V30 1626 1 2366 2368
M  V30 1627 1 2369 2370
M  V30 1628 1 2369 2371
M  V30 1629 1 2373 2372
M  V30 1630 1 2372 2374
M  V30 1631 1 2377 2375
M  V30 1632 1 2375 2376
M  V30 1633 1 2380 2378
M  V30 1634 1 2378 2379
M  V30 1635 1 2383 2381
M  V30 1636 1 2382 2381
M  V30 1637 1 2385 2384
M  V30 1638 1 2384 2386
M  V30 1639 1 2387 2389
M  V30 1640 1 2387 2388
M  V30 1641 1 2392 2390
M  V30 1642 1 2390 2391
M  V30 1643 1 2394 2393
M  V30 1644 1 2395 2393
M  V30 1645 1 2398 2396
M  V30 1646 1 2397 2396
M  V30 1647 1 2401 2399
M  V30 1648 1 2400 2399
M  V30 1649 1 2402 2404
M  V30 1650 1 2402 2403
M  V30 1651 1 2406 2405
M  V30 1652 1 2405 2407
M  V30 1653 1 2409 2408
M  V30 1654 1 2408 2410
M  V30 1655 1 2413 2411
M  V30 1656 1 2412 2411
M  V30 1657 1 2415 2414
M  V30 1658 1 2414 2416
M  V30 1659 1 2419 2417
M  V30 1660 1 2418 2417
M  V30 1661 1 2422 2420
M  V30 1662 1 2420 2421
M  V30 1663 1 2423 2425
M  V30 1664 1 2423 2424
M  V30 1665 1 2428 2426
M  V30 1666 1 2426 2427
M  V30 1667 1 2429 2431
M  V30 1668 1 2429 2430
M  V30 1669 1 2433 2432
M  V30 1670 1 2432 2434
M  V30 1671 1 2436 2435
M  V30 1672 1 2437 2435
M  V30 1673 1 2440 2438
M  V30 1674 1 2438 2439
M  V30 1675 1 2442 2441
M  V30 1676 1 2441 2443
M  V30 1677 1 2445 2444
M  V30 1678 1 2446 2444
M  V30 1679 1 2449 2447
M  V30 1680 1 2448 2447
M  V30 1681 1 2451 2450
M  V30 1682 1 2450 2452
M  V30 1683 1 2455 2453
M  V30 1684 1 2453 2454
M  V30 1685 1 2456 2457
M  V30 1686 1 2456 2458
M  V30 1687 1 2461 2459
M  V30 1688 1 2459 2460
M  V30 1689 1 2464 2462
M  V30 1690 1 2462 2463
M  V30 1691 1 2467 2465
M  V30 1692 1 2465 2466
M  V30 1693 1 2468 2469
M  V30 1694 1 2468 2470
M  V30 1695 1 2472 2471
M  V30 1696 1 2471 2473
M  V30 1697 1 2475 2474
M  V30 1698 1 2474 2476
M  V30 1699 1 2478 2477
M  V30 1700 1 2477 2479
M  V30 1701 1 2480 2481
M  V30 1702 1 2480 2482
M  V30 1703 1 2484 2483
M  V30 1704 1 2483 2485
M  V30 1705 1 2486 2488
M  V30 1706 1 2486 2487
M  V30 1707 1 2491 2489
M  V30 1708 1 2489 2490
M  V30 1709 1 2493 2492
M  V30 1710 1 2494 2492
M  V30 1711 1 2496 2495
M  V30 1712 1 2495 2497
M  V30 1713 1 2500 2498
M  V30 1714 1 2498 2499
M  V30 1715 1 2501 2502
M  V30 1716 1 2501 2503
M  V30 1717 1 2504 2506
M  V30 1718 1 2504 2505
M  V30 1719 1 2509 2507
M  V30 1720 1 2507 2508
M  V30 1721 1 2512 2510
M  V30 1722 1 2510 2511
M  V30 1723 1 2514 2513
M  V30 1724 1 2513 2515
M  V30 1725 1 2517 2516
M  V30 1726 1 2516 2518
M  V30 1727 1 2519 2521
M  V30 1728 1 2519 2520
M  V30 1729 1 2524 2522
M  V30 1730 1 2523 2522
M  V30 1731 1 2526 2525
M  V30 1732 1 2527 2525
M  V30 1733 1 2529 2528
M  V30 1734 1 2528 2530
M  V30 1735 1 2532 2531
M  V30 1736 1 2533 2531
M  V30 1737 1 2536 2534
M  V30 1738 1 2534 2535
M  V30 1739 1 2537 2538
M  V30 1740 1 2537 2539
M  V30 1741 1 2541 2540
M  V30 1742 1 2542 2540
M  V30 1743 1 2544 2543
M  V30 1744 1 2543 2545
M  V30 1745 1 2547 2546
M  V30 1746 1 2546 2548
M  V30 1747 1 2551 2549
M  V30 1748 1 2550 2549
M  V30 1749 1 2554 2552
M  V30 1750 1 2552 2553
M  V30 1751 1 2557 2555
M  V30 1752 1 2555 2556
M  V30 1753 1 2560 2558
M  V30 1754 1 2558 2559
M  V30 1755 1 2563 2561
M  V30 1756 1 2562 2561
M  V30 1757 1 2565 2564
M  V30 1758 1 2566 2564
M  V30 1759 1 2568 2567
M  V30 1760 1 2567 2569
M  V30 1761 1 2571 2570
M  V30 1762 1 2570 2572
M  V30 1763 1 2575 2573
M  V30 1764 1 2573 2574
M  V30 1765 1 2578 2576
M  V30 1766 1 2576 2577
M  V30 1767 1 2581 2579
M  V30 1768 1 2580 2579
M  V30 1769 1 2584 2582
M  V30 1770 1 2582 2583
M  V30 1771 1 2587 2585
M  V30 1772 1 2585 2586
M  V30 1773 1 2590 2588
M  V30 1774 1 2588 2589
M  V30 1775 1 2592 2591
M  V30 1776 1 2591 2593
M  V30 1777 1 2595 2594
M  V30 1778 1 2596 2594
M  V30 1779 1 2598 2597
M  V30 1780 1 2599 2597
M  V30 1781 1 2601 2600
M  V30 1782 1 2600 2602
M  V30 1783 1 2604 2603
M  V30 1784 1 2605 2603
M  V30 1785 1 2607 2606
M  V30 1786 1 2606 2608
M  V30 1787 1 2610 2609
M  V30 1788 1 2609 2611
M  V30 1789 1 2612 2614
M  V30 1790 1 2612 2613
M  V30 1791 1 2615 2617
M  V30 1792 1 2615 2616
M  V30 1793 1 2619 2618
M  V30 1794 1 2618 2620
M  V30 1795 1 2623 2621
M  V30 1796 1 2621 2622
M  V30 1797 1 2626 2624
M  V30 1798 1 2624 2625
M  V30 1799 1 2629 2627
M  V30 1800 1 2627 2628
M  V30 1801 1 2632 2630
M  V30 1802 1 2630 2631
M  V30 1803 1 2634 2633
M  V30 1804 1 2635 2633
M  V30 1805 1 2638 2636
M  V30 1806 1 2636 2637
M  V30 1807 1 2640 2639
M  V30 1808 1 2641 2639
M  V30 1809 1 2644 2642
M  V30 1810 1 2642 2643
M  V30 1811 1 2647 2645
M  V30 1812 1 2645 2646
M  V30 1813 1 2649 2648
M  V30 1814 1 2648 2650
M  V30 1815 1 2652 2651
M  V30 1816 1 2651 2653
M  V30 1817 1 2655 2654
M  V30 1818 1 2656 2654
M  V30 1819 1 2659 2657
M  V30 1820 1 2657 2658
M  V30 1821 1 2661 2660
M  V30 1822 1 2662 2660
M  V30 1823 1 2664 2663
M  V30 1824 1 2663 2665
M  V30 1825 1 2668 2666
M  V30 1826 1 2666 2667
M  V30 1827 1 2670 2669
M  V30 1828 1 2669 2671
M  V30 1829 1 2674 2672
M  V30 1830 1 2672 2673
M  V30 1831 1 2676 2675
M  V30 1832 1 2677 2675
M  V30 1833 1 2680 2678
M  V30 1834 1 2678 2679
M  V30 1835 1 2682 2681
M  V30 1836 1 2681 2683
M  V30 1837 1 2684 2686
M  V30 1838 1 2684 2685
M  V30 1839 1 2687 2688
M  V30 1840 1 2687 2689
M  V30 1841 1 2692 2690
M  V30 1842 1 2690 2691
M  V30 1843 1 2693 2695
M  V30 1844 1 2693 2694
M  V30 1845 1 2698 2696
M  V30 1846 1 2696 2697
M  V30 1847 1 2701 2699
M  V30 1848 1 2700 2699
M  V30 1849 1 2704 2702
M  V30 1850 1 2702 2703
M  V30 1851 1 2706 2705
M  V30 1852 1 2705 2707
M  V30 1853 1 2708 2709
M  V30 1854 1 2708 2710
M  V30 1855 1 2712 2711
M  V30 1856 1 2713 2711
M  V30 1857 1 2715 2714
M  V30 1858 1 2714 2716
M  V30 1859 1 2718 2717
M  V30 1860 1 2719 2717
M  V30 1861 1 2722 2720
M  V30 1862 1 2720 2721
M  V30 1863 1 2725 2723
M  V30 1864 1 2724 2723
M  V30 1865 1 2728 2726
M  V30 1866 1 2726 2727
M  V30 1867 1 2730 2729
M  V30 1868 1 2729 2731
M  V30 1869 1 2732 2733
M  V30 1870 1 2732 2734
M  V30 1871 1 2737 2735
M  V30 1872 1 2736 2735
M  V30 1873 1 2739 2738
M  V30 1874 1 2738 2740
M  V30 1875 1 2742 2741
M  V30 1876 1 2743 2741
M  V30 1877 1 2746 2744
M  V30 1878 1 2744 2745
M  V30 1879 1 2747 2748
M  V30 1880 1 2747 2749
M  V30 1881 1 2751 2750
M  V30 1882 1 2750 2752
M  V30 1883 1 2754 2753
M  V30 1884 1 2755 2753
M  V30 1885 1 2757 2756
M  V30 1886 1 2756 2758
M  V30 1887 1 2761 2759
M  V30 1888 1 2759 2760
M  V30 1889 1 2763 2762
M  V30 1890 1 2762 2764
M  V30 1891 1 2765 2766
M  V30 1892 1 2765 2767
M  V30 1893 1 2768 2770
M  V30 1894 1 2768 2769
M  V30 1895 1 2771 2773
M  V30 1896 1 2771 2772
M  V30 1897 1 2774 2775
M  V30 1898 1 2774 2776
M  V30 1899 1 2779 2777
M  V30 1900 1 2778 2777
M  V30 1901 1 2782 2780
M  V30 1902 1 2780 2781
M  V30 1903 1 2783 2785
M  V30 1904 1 2783 2784
M  V30 1905 1 2788 2786
M  V30 1906 1 2786 2787
M  V30 1907 1 2791 2789
M  V30 1908 1 2789 2790
M  V30 1909 1 2793 2792
M  V30 1910 1 2792 2794
M  V30 1911 1 2797 2795
M  V30 1912 1 2796 2795
M  V30 1913 1 2799 2798
M  V30 1914 1 2798 2800
M  V30 1915 1 2801 2803
M  V30 1916 1 2801 2802
M  V30 1917 1 2804 2806
M  V30 1918 1 2804 2805
M  V30 1919 1 2809 2807
M  V30 1920 1 2807 2808
M  V30 1921 1 2811 2810
M  V30 1922 1 2812 2810
M  V30 1923 1 2814 2813
M  V30 1924 1 2813 2815
M  V30 1925 1 2816 2818
M  V30 1926 1 2816 2817
M  V30 1927 1 2821 2819
M  V30 1928 1 2819 2820
M  V30 1929 1 2823 2822
M  V30 1930 1 2822 2824
M  V30 1931 1 2826 2825
M  V30 1932 1 2825 2827
M  V30 1933 1 2830 2828
M  V30 1934 1 2828 2829
M  V30 1935 1 2833 2831
M  V30 1936 1 2832 2831
M  V30 1937 1 2835 2834
M  V30 1938 1 2834 2836
M  V30 1939 1 2838 2837
M  V30 1940 1 2839 2837
M  V30 1941 1 2842 2840
M  V30 1942 1 2840 2841
M  V30 1943 1 2843 2844
M  V30 1944 1 2843 2845
M  V30 1945 1 2848 2846
M  V30 1946 1 2846 2847
M  V30 1947 1 2851 2849
M  V30 1948 1 2849 2850
M  V30 1949 1 2852 2853
M  V30 1950 1 2852 2854
M  V30 1951 1 2856 2855
M  V30 1952 1 2855 2857
M  V30 1953 1 2859 2858
M  V30 1954 1 2858 2860
M  V30 1955 1 2863 2861
M  V30 1956 1 2862 2861
M  V30 1957 1 2865 2864
M  V30 1958 1 2864 2866
M  V30 1959 1 2869 2867
M  V30 1960 1 2868 2867
M  V30 1961 1 2872 2870
M  V30 1962 1 2870 2871
M  V30 1963 1 2873 2874
M  V30 1964 1 2873 2875
M  V30 1965 1 2878 2876
M  V30 1966 1 2876 2877
M  V30 1967 1 2879 2880
M  V30 1968 1 2879 2881
M  V30 1969 1 2883 2882
M  V30 1970 1 2884 2882
M  V30 1971 1 2887 2885
M  V30 1972 1 2885 2886
M  V30 1973 1 2890 2888
M  V30 1974 1 2888 2889
M  V30 1975 1 2893 2891
M  V30 1976 1 2891 2892
M  V30 1977 1 2896 2894
M  V30 1978 1 2894 2895
M  V30 1979 1 2899 2897
M  V30 1980 1 2897 2898
M  V30 1981 1 2902 2900
M  V30 1982 1 2900 2901
M  V30 1983 1 2905 2903
M  V30 1984 1 2904 2903
M  V30 1985 1 2907 2906
M  V30 1986 1 2906 2908
M  V30 1987 1 2911 2909
M  V30 1988 1 2910 2909
M  V30 1989 1 2913 2912
M  V30 1990 1 2914 2912
M  V30 1991 1 2915 2917
M  V30 1992 1 2915 2916
M  V30 1993 1 2920 2918
M  V30 1994 1 2918 2919
M  V30 1995 1 2922 2921
M  V30 1996 1 2921 2923
M  V30 1997 1 2924 2926
M  V30 1998 1 2924 2925
M  V30 1999 1 2929 2927
M  V30 2000 1 2927 2928
M  V30 2001 1 2931 2930
M  V30 2002 1 2930 2932
M  V30 2003 1 2934 2933
M  V30 2004 1 2933 2935
M  V30 2005 1 2937 2936
M  V30 2006 1 2936 2938
M  V30 2007 1 2941 2939
M  V30 2008 1 2939 2940
M  V30 2009 1 2943 2942
M  V30 2010 1 2944 2942
M  V30 2011 1 2946 2945
M  V30 2012 1 2947 2945
M  V30 2013 1 2948 2950
M  V30 2014 1 2948 2949
M  V30 2015 1 2952 2951
M  V30 2016 1 2951 2953
M  V30 2017 1 2956 2954
M  V30 2018 1 2954 2955
M  V30 2019 1 2959 2957
M  V30 2020 1 2958 2957
M  V30 2021 1 2960 2962
M  V30 2022 1 2960 2961
M  V30 2023 1 2964 2963
M  V30 2024 1 2963 2965
M  V30 2025 1 2968 2966
M  V30 2026 1 2966 2967
M  V30 2027 1 2971 2969
M  V30 2028 1 2969 2970
M  V30 2029 1 2972 2973
M  V30 2030 1 2972 2974
M  V30 2031 1 2975 2976
M  V30 2032 1 2975 2977
M  V30 2033 1 2979 2978
M  V30 2034 1 2978 2980
M  V30 2035 1 2982 2981
M  V30 2036 1 2983 2981
M  V30 2037 1 2985 2984
M  V30 2038 1 2984 2986
M  V30 2039 1 2988 2987
M  V30 2040 1 2989 2987
M  V30 2041 1 2990 2992
M  V30 2042 1 2990 2991
M  V30 2043 1 2995 2993
M  V30 2044 1 2994 2993
M  V30 2045 1 2998 2996
M  V30 2046 1 2996 2997
M  V30 2047 1 3001 2999
M  V30 2048 1 3000 2999
M  V30 2049 1 3004 3002
M  V30 2050 1 3003 3002
M  V30 2051 1 3006 3005
M  V30 2052 1 3005 3007
M  V30 2053 1 3010 3008
M  V30 2054 1 3009 3008
M  V30 2055 1 3012 3011
M  V30 2056 1 3011 3013
M  V30 2057 1 3014 3016
M  V30 2058 1 3014 3015
M  V30 2059 1 3018 3017
M  V30 2060 1 3019 3017
M  V30 2061 1 3022 3020
M  V30 2062 1 3020 3021
M  V30 2063 1 3025 3023
M  V30 2064 1 3023 3024
M  V30 2065 1 3027 3026
M  V30 2066 1 3026 3028
M  V30 2067 1 3031 3029
M  V30 2068 1 3029 3030
M  V30 2069 1 3034 3032
M  V30 2070 1 3033 3032
M  V30 2071 1 3037 3035
M  V30 2072 1 3035 3036
M  V30 2073 1 3040 3038
M  V30 2074 1 3039 3038
M  V30 2075 1 3041 3043
M  V30 2076 1 3041 3042
M  V30 2077 1 3044 3045
M  V30 2078 1 3044 3046
M  V30 2079 1 3048 3047
M  V30 2080 1 3047 3049
M  V30 2081 1 3051 3050
M  V30 2082 1 3052 3050
M  V30 2083 1 3055 3053
M  V30 2084 1 3053 3054
M  V30 2085 1 3056 3058
M  V30 2086 1 3056 3057
M  V30 2087 1 3060 3059
M  V30 2088 1 3059 3061
M  V30 2089 1 3063 3062
M  V30 2090 1 3062 3064
M  V30 2091 1 3066 3065
M  V30 2092 1 3067 3065
M  V30 2093 1 3068 3070
M  V30 2094 1 3068 3069
M  V30 2095 1 3073 3071
M  V30 2096 1 3071 3072
M  V30 2097 1 3076 3074
M  V30 2098 1 3074 3075
M  V30 2099 1 3077 3078
M  V30 2100 1 3077 3079
M  V30 2101 1 3081 3080
M  V30 2102 1 3082 3080
M  V30 2103 1 3084 3083
M  V30 2104 1 3083 3085
M  V30 2105 1 3088 3086
M  V30 2106 1 3086 3087
M  V30 2107 1 3090 3089
M  V30 2108 1 3089 3091
M  V30 2109 1 3094 3092
M  V30 2110 1 3092 3093
M  V30 2111 1 3096 3095
M  V30 2112 1 3095 3097
M  V30 2113 1 3099 3098
M  V30 2114 1 3098 3100
M  V30 2115 1 3103 3101
M  V30 2116 1 3101 3102
M  V30 2117 1 3106 3104
M  V30 2118 1 3104 3105
M  V30 2119 1 3108 3107
M  V30 2120 1 3109 3107
M  V30 2121 1 3112 3110
M  V30 2122 1 3110 3111
M  V30 2123 1 3113 3115
M  V30 2124 1 3113 3114
M  V30 2125 1 3117 3116
M  V30 2126 1 3116 3118
M  V30 2127 1 3120 3119
M  V30 2128 1 3119 3121
M  V30 2129 1 3123 3122
M  V30 2130 1 3122 3124
M  V30 2131 1 3126 3125
M  V30 2132 1 3127 3125
M  V30 2133 1 3128 3130
M  V30 2134 1 3128 3129
M  V30 2135 1 3132 3131
M  V30 2136 1 3131 3133
M  V30 2137 1 3136 3134
M  V30 2138 1 3134 3135
M  V30 2139 1 3137 3138
M  V30 2140 1 3137 3139
M  V30 2141 1 3140 3142
M  V30 2142 1 3140 3141
M  V30 2143 1 3144 3143
M  V30 2144 1 3143 3145
M  V30 2145 1 3147 3146
M  V30 2146 1 3146 3148
M  V30 2147 1 3150 3149
M  V30 2148 1 3149 3151
M  V30 2149 1 3153 3152
M  V30 2150 1 3152 3154
M  V30 2151 1 3157 3155
M  V30 2152 1 3155 3156
M  V30 2153 1 3160 3158
M  V30 2154 1 3159 3158
M  V30 2155 1 3162 3161
M  V30 2156 1 3163 3161
M  V30 2157 1 3164 3165
M  V30 2158 1 3164 3166
M  V30 2159 1 3168 3167
M  V30 2160 1 3167 3169
M  V30 2161 1 3172 3170
M  V30 2162 1 3170 3171
M  V30 2163 1 3175 3173
M  V30 2164 1 3173 3174
M  V30 2165 1 3178 3176
M  V30 2166 1 3176 3177
M  V30 2167 1 3181 3179
M  V30 2168 1 3179 3180
M  V30 2169 1 3184 3182
M  V30 2170 1 3182 3183
M  V30 2171 1 3186 3185
M  V30 2172 1 3185 3187
M  V30 2173 1 3190 3188
M  V30 2174 1 3188 3189
M  V30 2175 1 3192 3191
M  V30 2176 1 3191 3193
M  V30 2177 1 3196 3194
M  V30 2178 1 3194 3195
M  V30 2179 1 3197 3199
M  V30 2180 1 3197 3198
M  V30 2181 1 3200 3201
M  V30 2182 1 3200 3202
M  V30 2183 1 3204 3203
M  V30 2184 1 3203 3205
M  V30 2185 1 3208 3206
M  V30 2186 1 3207 3206
M  V30 2187 1 3210 3209
M  V30 2188 1 3209 3211
M  V30 2189 1 3214 3212
M  V30 2190 1 3212 3213
M  V30 2191 1 3217 3215
M  V30 2192 1 3215 3216
M  V30 2193 1 3220 3218
M  V30 2194 1 3218 3219
M  V30 2195 1 3221 3223
M  V30 2196 1 3221 3222
M  V30 2197 1 3226 3224
M  V30 2198 1 3225 3224
M  V30 2199 1 3228 3227
M  V30 2200 1 3227 3229
M  V30 2201 1 3231 3230
M  V30 2202 1 3232 3230
M  V30 2203 1 3235 3233
M  V30 2204 1 3234 3233
M  V30 2205 1 3237 3236
M  V30 2206 1 3236 3238
M  V30 2207 1 3240 3239
M  V30 2208 1 3239 3241
M  V30 2209 1 3243 3242
M  V30 2210 1 3242 3244
M  V30 2211 1 3247 3245
M  V30 2212 1 3246 3245
M  V30 2213 1 3249 3248
M  V30 2214 1 3248 3250
M  V30 2215 1 3252 3251
M  V30 2216 1 3251 3253
M  V30 2217 1 3256 3254
M  V30 2218 1 3254 3255
M  V30 2219 1 3258 3257
M  V30 2220 1 3257 3259
M  V30 2221 1 3261 3260
M  V30 2222 1 3260 3262
M  V30 2223 1 3265 3263
M  V30 2224 1 3264 3263
M  V30 2225 1 3267 3266
M  V30 2226 1 3266 3268
M  V30 2227 1 3270 3269
M  V30 2228 1 3269 3271
M  V30 2229 1 3274 3272
M  V30 2230 1 3273 3272
M  V30 2231 1 3276 3275
M  V30 2232 1 3275 3277
M  V30 2233 1 3279 3278
M  V30 2234 1 3280 3278
M  V30 2235 1 3283 3281
M  V30 2236 1 3281 3282
M  V30 2237 1 3286 3284
M  V30 2238 1 3284 3285
M  V30 2239 1 3288 3287
M  V30 2240 1 3287 3289
M  V30 2241 1 3291 3290
M  V30 2242 1 3292 3290
M  V30 2243 1 3295 3293
M  V30 2244 1 3293 3294
M  V30 2245 1 3296 3298
M  V30 2246 1 3296 3297
M  V30 2247 1 3301 3299
M  V30 2248 1 3299 3300
M  V30 2249 1 3303 3302
M  V30 2250 1 3304 3302
M  V30 2251 1 3305 3307
M  V30 2252 1 3305 3306
M  V30 2253 1 3309 3308
M  V30 2254 1 3308 3310
M  V30 2255 1 3312 3311
M  V30 2256 1 3313 3311
M  V30 2257 1 3314 3316
M  V30 2258 1 3314 3315
M  V30 2259 1 3318 3317
M  V30 2260 1 3317 3319
M  V30 2261 1 3320 3321
M  V30 2262 1 3320 3322
M  V30 2263 1 3323 3324
M  V30 2264 1 3323 3325
M  V30 2265 1 3328 3326
M  V30 2266 1 3326 3327
M  V30 2267 1 3330 3329
M  V30 2268 1 3329 3331
M  V30 2269 1 3334 3332
M  V30 2270 1 3332 3333
M  V30 2271 1 3337 3335
M  V30 2272 1 3336 3335
M  V30 2273 1 3338 3339
M  V30 2274 1 3338 3340
M  V30 2275 1 3343 3341
M  V30 2276 1 3341 3342
M  V30 2277 1 3345 3344
M  V30 2278 1 3344 3346
M  V30 2279 1 3349 3347
M  V30 2280 1 3347 3348
M  V30 2281 1 3351 3350
M  V30 2282 1 3350 3352
M  V30 2283 1 3354 3353
M  V30 2284 1 3353 3355
M  V30 2285 1 3357 3356
M  V30 2286 1 3356 3358
M  V30 2287 1 3360 3359
M  V30 2288 1 3361 3359
M  V30 2289 1 3364 3362
M  V30 2290 1 3362 3363
M  V30 2291 1 3365 3367
M  V30 2292 1 3365 3366
M  V30 2293 1 3369 3368
M  V30 2294 1 3370 3368
M  V30 2295 1 3371 3373
M  V30 2296 1 3371 3372
M  V30 2297 1 3376 3374
M  V30 2298 1 3374 3375
M  V30 2299 1 3379 3377
M  V30 2300 1 3378 3377
M  V30 2301 1 3381 3380
M  V30 2302 1 3382 3380
M  V30 2303 1 3385 3383
M  V30 2304 1 3383 3384
M  V30 2305 1 3388 3386
M  V30 2306 1 3386 3387
M  V30 2307 1 3390 3389
M  V30 2308 1 3389 3391
M  V30 2309 1 3392 3394
M  V30 2310 1 3392 3393
M  V30 2311 1 3397 3395
M  V30 2312 1 3395 3396
M  V30 2313 1 3399 3398
M  V30 2314 1 3398 3400
M  V30 2315 1 3402 3401
M  V30 2316 1 3401 3403
M  V30 2317 1 3406 3404
M  V30 2318 1 3404 3405
M  V30 2319 1 3408 3407
M  V30 2320 1 3407 3409
M  V30 2321 1 3411 3410
M  V30 2322 1 3412 3410
M  V30 2323 1 3413 3415
M  V30 2324 1 3413 3414
M  V30 2325 1 3417 3416
M  V30 2326 1 3416 3418
M  V30 2327 1 3421 3419
M  V30 2328 1 3420 3419
M  V30 2329 1 3422 3424
M  V30 2330 1 3422 3423
M  V30 2331 1 3426 3425
M  V30 2332 1 3427 3425
M  V30 2333 1 3429 3428
M  V30 2334 1 3428 3430
M  V30 2335 1 3432 3431
M  V30 2336 1 3431 3433
M  V30 2337 1 3435 3434
M  V30 2338 1 3434 3436
M  V30 2339 1 3439 3437
M  V30 2340 1 3437 3438
M  V30 2341 1 3442 3440
M  V30 2342 1 3440 3441
M  V30 2343 1 3445 3443
M  V30 2344 1 3443 3444
M  V30 2345 1 3448 3446
M  V30 2346 1 3447 3446
M  V30 2347 1 3450 3449
M  V30 2348 1 3449 3451
M  V30 2349 1 3453 3452
M  V30 2350 1 3454 3452
M  V30 2351 1 3455 3457
M  V30 2352 1 3455 3456
M  V30 2353 1 3460 3458
M  V30 2354 1 3458 3459
M  V30 2355 1 3462 3461
M  V30 2356 1 3461 3463
M  V30 2357 1 3465 3464
M  V30 2358 1 3464 3466
M  V30 2359 1 3469 3467
M  V30 2360 1 3468 3467
M  V30 2361 1 3471 3470
M  V30 2362 1 3470 3472
M  V30 2363 1 3473 3474
M  V30 2364 1 3473 3475
M  V30 2365 1 3477 3476
M  V30 2366 1 3476 3478
M  V30 2367 1 3481 3479
M  V30 2368 1 3479 3480
M  V30 2369 1 3484 3482
M  V30 2370 1 3482 3483
M  V30 2371 1 3487 3485
M  V30 2372 1 3485 3486
M  V30 2373 1 3489 3488
M  V30 2374 1 3488 3490
M  V30 2375 1 3493 3491
M  V30 2376 1 3491 3492
M  V30 2377 1 3496 3494
M  V30 2378 1 3494 3495
M  V30 2379 1 3499 3497
M  V30 2380 1 3498 3497
M  V30 2381 1 3501 3500
M  V30 2382 1 3500 3502
M  V30 2383 1 3504 3503
M  V30 2384 1 3503 3505
M  V30 2385 1 3508 3506
M  V30 2386 1 3506 3507
M  V30 2387 1 3511 3509
M  V30 2388 1 3509 3510
M  V30 2389 1 3512 3514
M  V30 2390 1 3512 3513
M  V30 2391 1 3515 3516
M  V30 2392 1 3515 3517
M  V30 2393 1 3518 3519
M  V30 2394 1 3518 3520
M  V30 2395 1 3523 3521
M  V30 2396 1 3521 3522
M  V30 2397 1 3525 3524
M  V30 2398 1 3526 3524
M  V30 2399 1 3528 3527
M  V30 2400 1 3527 3529
M  V30 2401 1 3532 3530
M  V30 2402 1 3530 3531
M  V30 2403 1 3535 3533
M  V30 2404 1 3533 3534
M  V30 2405 1 3536 3537
M  V30 2406 1 3536 3538
M  V30 2407 1 3541 3539
M  V30 2408 1 3539 3540
M  V30 2409 1 3544 3542
M  V30 2410 1 3542 3543
M  V30 2411 1 3547 3545
M  V30 2412 1 3545 3546
M  V30 2413 1 3550 3548
M  V30 2414 1 3548 3549
M  V30 2415 1 3553 3551
M  V30 2416 1 3551 3552
M  V30 2417 1 3555 3554
M  V30 2418 1 3554 3556
M  V30 2419 1 3558 3557
M  V30 2420 1 3559 3557
M  V30 2421 1 3561 3560
M  V30 2422 1 3560 3562
M  V30 2423 1 3565 3563
M  V30 2424 1 3563 3564
M  V30 2425 1 3566 3568
M  V30 2426 1 3566 3567
M  V30 2427 1 3570 3569
M  V30 2428 1 3569 3571
M  V30 2429 1 3574 3572
M  V30 2430 1 3572 3573
M  V30 2431 1 3576 3575
M  V30 2432 1 3575 3577
M  V30 2433 1 3578 3580
M  V30 2434 1 3578 3579
M  V30 2435 1 3583 3581
M  V30 2436 1 3582 3581
M  V30 2437 1 3586 3584
M  V30 2438 1 3584 3585
M  V30 2439 1 3589 3587
M  V30 2440 1 3587 3588
M  V30 2441 1 3590 3592
M  V30 2442 1 3590 3591
M  V30 2443 1 3595 3593
M  V30 2444 1 3593 3594
M  V30 2445 1 3597 3596
M  V30 2446 1 3596 3598
M  V30 2447 1 3601 3599
M  V30 2448 1 3599 3600
M  V30 2449 1 3604 3602
M  V30 2450 1 3602 3603
M  V30 2451 1 3607 3605
M  V30 2452 1 3606 3605
M  V30 2453 1 3608 3610
M  V30 2454 1 3608 3609
M  V30 2455 1 3612 3611
M  V30 2456 1 3613 3611
M  V30 2457 1 3616 3614
M  V30 2458 1 3614 3615
M  V30 2459 1 3618 3617
M  V30 2460 1 3617 3619
M  V30 2461 1 3622 3620
M  V30 2462 1 3621 3620
M  V30 2463 1 3623 3624
M  V30 2464 1 3623 3625
M  V30 2465 1 3628 3626
M  V30 2466 1 3626 3627
M  V30 2467 1 3630 3629
M  V30 2468 1 3631 3629
M  V30 2469 1 3634 3632
M  V30 2470 1 3633 3632
M  V30 2471 1 3637 3635
M  V30 2472 1 3636 3635
M  V30 2473 1 3638 3640
M  V30 2474 1 3638 3639
M  V30 2475 1 3642 3641
M  V30 2476 1 3641 3643
M  V30 2477 1 3646 3644
M  V30 2478 1 3644 3645
M  V30 2479 1 3649 3647
M  V30 2480 1 3647 3648
M  V30 2481 1 3652 3650
M  V30 2482 1 3650 3651
M  V30 2483 1 3654 3653
M  V30 2484 1 3653 3655
M  V30 2485 1 3658 3656
M  V30 2486 1 3657 3656
M  V30 2487 1 3660 3659
M  V30 2488 1 3661 3659
M  V30 2489 1 3663 3662
M  V30 2490 1 3662 3664
M  V30 2491 1 3666 3665
M  V30 2492 1 3667 3665
M  V30 2493 1 3669 3668
M  V30 2494 1 3668 3670
M  V30 2495 1 3672 3671
M  V30 2496 1 3673 3671
M  V30 2497 1 3674 3675
M  V30 2498 1 3674 3676
M  V30 2499 1 3678 3677
M  V30 2500 1 3677 3679
M  V30 2501 1 3682 3680
M  V30 2502 1 3680 3681
M  V30 2503 1 3685 3683
M  V30 2504 1 3683 3684
M  V30 2505 1 3688 3686
M  V30 2506 1 3687 3686
M  V30 2507 1 3691 3689
M  V30 2508 1 3689 3690
M  V30 2509 1 3694 3692
M  V30 2510 1 3692 3693
M  V30 2511 1 3695 3696
M  V30 2512 1 3695 3697
M  V30 2513 1 3700 3698
M  V30 2514 1 3698 3699
M  V30 2515 1 3701 3703
M  V30 2516 1 3701 3702
M  V30 2517 1 3706 3704
M  V30 2518 1 3704 3705
M  V30 2519 1 3709 3707
M  V30 2520 1 3707 3708
M  V30 2521 1 3711 3710
M  V30 2522 1 3710 3712
M  V30 2523 1 3713 3715
M  V30 2524 1 3713 3714
M  V30 2525 1 3718 3716
M  V30 2526 1 3716 3717
M  V30 2527 1 3719 3721
M  V30 2528 1 3719 3720
M  V30 2529 1 3722 3723
M  V30 2530 1 3722 3724
M  V30 2531 1 3726 3725
M  V30 2532 1 3725 3727
M  V30 2533 1 3730 3728
M  V30 2534 1 3728 3729
M  V30 2535 1 3732 3731
M  V30 2536 1 3731 3733
M  V30 2537 1 3734 3736
M  V30 2538 1 3734 3735
M  V30 2539 1 3738 3737
M  V30 2540 1 3737 3739
M  V30 2541 1 3740 3742
M  V30 2542 1 3740 3741
M  V30 END BOND
M  V30 END CTAB
M  END